pcf
* control data
norestart estimation
      4200        36         3         0         3
         1         1    single     point         1         0         0
5.0  -3.0  0.3  0.03    10
3.0   3.0 0.001  0
0.1
    -2   0.01     3     3  0.01     3
0  0  0  
* parameter groups
layer_uno      relative  0.01 0.0 always_2 2.0 parabolic
layer_due      relative  0.01 0.0 always_2 2.0 parabolic
layer_tre      relative  0.01 0.0 always_2 2.0 parabolic
* parameter data
p0001          none relative 1.25600450e-03 -1.0E-10 1.0E+10 layer_uno 1.000 0.00 1
p0002          none relative 1.29907730e-03 -1.0E-10 1.0E+10 layer_uno 1.000 0.00 1
p0003          none relative 1.34348900e-03 -1.0E-10 1.0E+10 layer_uno 1.000 0.00 1
p0004          none relative 1.38840770e-03 -1.0E-10 1.0E+10 layer_uno 1.000 0.00 1
p0005          none relative 1.43335050e-03 -1.0E-10 1.0E+10 layer_uno 1.000 0.00 1
p0006          none relative 1.47682940e-03 -1.0E-10 1.0E+10 layer_uno 1.000 0.00 1
p0007          none relative 1.51627480e-03 -1.0E-10 1.0E+10 layer_uno 1.000 0.00 1
p0008          none relative 1.55000360e-03 -1.0E-10 1.0E+10 layer_uno 1.000 0.00 1
p0009          none relative 1.57882080e-03 -1.0E-10 1.0E+10 layer_uno 1.000 0.00 1
p0010          none relative 1.59766570e-03 -1.0E-10 1.0E+10 layer_uno 1.000 0.00 1
p0011          none relative 1.60651410e-03 -1.0E-10 1.0E+10 layer_uno 1.000 0.00 1
p0012          none relative 1.60372790e-03 -1.0E-10 1.0E+10 layer_uno 1.000 0.00 1
p0013          none relative 1.58828360e-03 -1.0E-10 1.0E+10 layer_uno 1.000 0.00 1
p0014          none relative 1.55778790e-03 -1.0E-10 1.0E+10 layer_uno 1.000 0.00 1
p0015          none relative 1.51204610e-03 -1.0E-10 1.0E+10 layer_uno 1.000 0.00 1
p0016          none relative 1.45328670e-03 -1.0E-10 1.0E+10 layer_uno 1.000 0.00 1
p0017          none relative 1.38349880e-03 -1.0E-10 1.0E+10 layer_uno 1.000 0.00 1
p0018          none relative 1.30414430e-03 -1.0E-10 1.0E+10 layer_uno 1.000 0.00 1
p0019          none relative 1.22068000e-03 -1.0E-10 1.0E+10 layer_uno 1.000 0.00 1
p0020          none relative 1.13931110e-03 -1.0E-10 1.0E+10 layer_uno 1.000 0.00 1
p0021          none relative 1.06632000e-03 -1.0E-10 1.0E+10 layer_uno 1.000 0.00 1
p0022          none relative 1.00606090e-03 -1.0E-10 1.0E+10 layer_uno 1.000 0.00 1
p0023          none relative 9.60366680e-04 -1.0E-10 1.0E+10 layer_uno 1.000 0.00 1
p0024          none relative 9.28229930e-04 -1.0E-10 1.0E+10 layer_uno 1.000 0.00 1
p0025          none relative 9.07819650e-04 -1.0E-10 1.0E+10 layer_uno 1.000 0.00 1
p0026          none relative 8.97157760e-04 -1.0E-10 1.0E+10 layer_uno 1.000 0.00 1
p0027          none relative 8.93480810e-04 -1.0E-10 1.0E+10 layer_uno 1.000 0.00 1
p0028          none relative 8.95541570e-04 -1.0E-10 1.0E+10 layer_uno 1.000 0.00 1
p0029          none relative 9.02059000e-04 -1.0E-10 1.0E+10 layer_uno 1.000 0.00 1
p0030          none relative 9.11456930e-04 -1.0E-10 1.0E+10 layer_uno 1.000 0.00 1
p0031          none relative 9.21703340e-04 -1.0E-10 1.0E+10 layer_uno 1.000 0.00 1
p0032          none relative 9.30871600e-04 -1.0E-10 1.0E+10 layer_uno 1.000 0.00 1
p0033          none relative 9.37633150e-04 -1.0E-10 1.0E+10 layer_uno 1.000 0.00 1
p0034          none relative 9.41083990e-04 -1.0E-10 1.0E+10 layer_uno 1.000 0.00 1
p0035          none relative 9.41320810e-04 -1.0E-10 1.0E+10 layer_uno 1.000 0.00 1
p0036          none relative 1.23066870e-03 -1.0E-10 1.0E+10 layer_uno 1.000 0.00 1
p0037          none relative 1.27494430e-03 -1.0E-10 1.0E+10 layer_uno 1.000 0.00 1
p0038          none relative 1.32098680e-03 -1.0E-10 1.0E+10 layer_uno 1.000 0.00 1
p0039          none relative 1.36780620e-03 -1.0E-10 1.0E+10 layer_uno 1.000 0.00 1
p0040          none relative 1.41520080e-03 -1.0E-10 1.0E+10 layer_uno 1.000 0.00 1
p0041          none relative 1.46083790e-03 -1.0E-10 1.0E+10 layer_uno 1.000 0.00 1
p0042          none relative 1.50269360e-03 -1.0E-10 1.0E+10 layer_uno 1.000 0.00 1
p0043          none relative 1.53933900e-03 -1.0E-10 1.0E+10 layer_uno 1.000 0.00 1
p0044          none relative 1.57116560e-03 -1.0E-10 1.0E+10 layer_uno 1.000 0.00 1
p0045          none relative 1.59240910e-03 -1.0E-10 1.0E+10 layer_uno 1.000 0.00 1
p0046          none relative 1.60344080e-03 -1.0E-10 1.0E+10 layer_uno 1.000 0.00 1
p0047          none relative 1.60229980e-03 -1.0E-10 1.0E+10 layer_uno 1.000 0.00 1
p0048          none relative 1.58782300e-03 -1.0E-10 1.0E+10 layer_uno 1.000 0.00 1
p0049          none relative 1.55733960e-03 -1.0E-10 1.0E+10 layer_uno 1.000 0.00 1
p0050          none relative 1.51047800e-03 -1.0E-10 1.0E+10 layer_uno 1.000 0.00 1
p0051          none relative 1.44972140e-03 -1.0E-10 1.0E+10 layer_uno 1.000 0.00 1
p0052          none relative 1.37710510e-03 -1.0E-10 1.0E+10 layer_uno 1.000 0.00 1
p0053          none relative 1.29366570e-03 -1.0E-10 1.0E+10 layer_uno 1.000 0.00 1
p0054          none relative 1.20487000e-03 -1.0E-10 1.0E+10 layer_uno 1.000 0.00 1
p0055          none relative 1.11797570e-03 -1.0E-10 1.0E+10 layer_uno 1.000 0.00 1
p0056          none relative 1.04066400e-03 -1.0E-10 1.0E+10 layer_uno 1.000 0.00 1
p0057          none relative 9.78370650e-04 -1.0E-10 1.0E+10 layer_uno 1.000 0.00 1
p0058          none relative 9.32748260e-04 -1.0E-10 1.0E+10 layer_uno 1.000 0.00 1
p0059          none relative 9.02072770e-04 -1.0E-10 1.0E+10 layer_uno 1.000 0.00 1
p0060          none relative 8.83821800e-04 -1.0E-10 1.0E+10 layer_uno 1.000 0.00 1
p0061          none relative 8.75624530e-04 -1.0E-10 1.0E+10 layer_uno 1.000 0.00 1
p0062          none relative 8.74411680e-04 -1.0E-10 1.0E+10 layer_uno 1.000 0.00 1
p0063          none relative 8.78684890e-04 -1.0E-10 1.0E+10 layer_uno 1.000 0.00 1
p0064          none relative 8.87328980e-04 -1.0E-10 1.0E+10 layer_uno 1.000 0.00 1
p0065          none relative 8.99084380e-04 -1.0E-10 1.0E+10 layer_uno 1.000 0.00 1
p0066          none relative 9.11459880e-04 -1.0E-10 1.0E+10 layer_uno 1.000 0.00 1
p0067          none relative 9.22619770e-04 -1.0E-10 1.0E+10 layer_uno 1.000 0.00 1
p0068          none relative 9.30603910e-04 -1.0E-10 1.0E+10 layer_uno 1.000 0.00 1
p0069          none relative 9.34605800e-04 -1.0E-10 1.0E+10 layer_uno 1.000 0.00 1
p0070          none relative 9.34913770e-04 -1.0E-10 1.0E+10 layer_uno 1.000 0.00 1
p0071          none relative 1.20112570e-03 -1.0E-10 1.0E+10 layer_uno 1.000 0.00 1
p0072          none relative 1.24555370e-03 -1.0E-10 1.0E+10 layer_uno 1.000 0.00 1
p0073          none relative 1.29252000e-03 -1.0E-10 1.0E+10 layer_uno 1.000 0.00 1
p0074          none relative 1.34079710e-03 -1.0E-10 1.0E+10 layer_uno 1.000 0.00 1
p0075          none relative 1.38942400e-03 -1.0E-10 1.0E+10 layer_uno 1.000 0.00 1
p0076          none relative 1.43655070e-03 -1.0E-10 1.0E+10 layer_uno 1.000 0.00 1
p0077          none relative 1.48062630e-03 -1.0E-10 1.0E+10 layer_uno 1.000 0.00 1
p0078          none relative 1.52021490e-03 -1.0E-10 1.0E+10 layer_uno 1.000 0.00 1
p0079          none relative 1.55437660e-03 -1.0E-10 1.0E+10 layer_uno 1.000 0.00 1
p0080          none relative 1.57779590e-03 -1.0E-10 1.0E+10 layer_uno 1.000 0.00 1
p0081          none relative 1.59014750e-03 -1.0E-10 1.0E+10 layer_uno 1.000 0.00 1
p0082          none relative 1.59053610e-03 -1.0E-10 1.0E+10 layer_uno 1.000 0.00 1
p0083          none relative 1.57679240e-03 -1.0E-10 1.0E+10 layer_uno 1.000 0.00 1
p0084          none relative 1.54637130e-03 -1.0E-10 1.0E+10 layer_uno 1.000 0.00 1
p0085          none relative 1.49916130e-03 -1.0E-10 1.0E+10 layer_uno 1.000 0.00 1
p0086          none relative 1.43706030e-03 -1.0E-10 1.0E+10 layer_uno 1.000 0.00 1
p0087          none relative 1.36224180e-03 -1.0E-10 1.0E+10 layer_uno 1.000 0.00 1
p0088          none relative 1.27705670e-03 -1.0E-10 1.0E+10 layer_uno 1.000 0.00 1
p0089          none relative 1.18505920e-03 -1.0E-10 1.0E+10 layer_uno 1.000 0.00 1
p0090          none relative 1.09385870e-03 -1.0E-10 1.0E+10 layer_uno 1.000 0.00 1
p0091          none relative 1.01325350e-03 -1.0E-10 1.0E+10 layer_uno 1.000 0.00 1
p0092          none relative 9.50408800e-04 -1.0E-10 1.0E+10 layer_uno 1.000 0.00 1
p0093          none relative 9.06104990e-04 -1.0E-10 1.0E+10 layer_uno 1.000 0.00 1
p0094          none relative 8.77776920e-04 -1.0E-10 1.0E+10 layer_uno 1.000 0.00 1
p0095          none relative 8.62147140e-04 -1.0E-10 1.0E+10 layer_uno 1.000 0.00 1
p0096          none relative 8.56407220e-04 -1.0E-10 1.0E+10 layer_uno 1.000 0.00 1
p0097          none relative 8.57519650e-04 -1.0E-10 1.0E+10 layer_uno 1.000 0.00 1
p0098          none relative 8.63761650e-04 -1.0E-10 1.0E+10 layer_uno 1.000 0.00 1
p0099          none relative 8.74166670e-04 -1.0E-10 1.0E+10 layer_uno 1.000 0.00 1
p0100          none relative 8.87471570e-04 -1.0E-10 1.0E+10 layer_uno 1.000 0.00 1
p0101          none relative 9.01610220e-04 -1.0E-10 1.0E+10 layer_uno 1.000 0.00 1
p0102          none relative 9.14284000e-04 -1.0E-10 1.0E+10 layer_uno 1.000 0.00 1
p0103          none relative 9.23008780e-04 -1.0E-10 1.0E+10 layer_uno 1.000 0.00 1
p0104          none relative 9.27337690e-04 -1.0E-10 1.0E+10 layer_uno 1.000 0.00 1
p0105          none relative 9.27742280e-04 -1.0E-10 1.0E+10 layer_uno 1.000 0.00 1
p0106          none relative 1.16800550e-03 -1.0E-10 1.0E+10 layer_uno 1.000 0.00 1
p0107          none relative 1.21169350e-03 -1.0E-10 1.0E+10 layer_uno 1.000 0.00 1
p0108          none relative 1.25867190e-03 -1.0E-10 1.0E+10 layer_uno 1.000 0.00 1
p0109          none relative 1.30767420e-03 -1.0E-10 1.0E+10 layer_uno 1.000 0.00 1
p0110          none relative 1.35678570e-03 -1.0E-10 1.0E+10 layer_uno 1.000 0.00 1
p0111          none relative 1.40465910e-03 -1.0E-10 1.0E+10 layer_uno 1.000 0.00 1
p0112          none relative 1.45009320e-03 -1.0E-10 1.0E+10 layer_uno 1.000 0.00 1
p0113          none relative 1.49230780e-03 -1.0E-10 1.0E+10 layer_uno 1.000 0.00 1
p0114          none relative 1.52829560e-03 -1.0E-10 1.0E+10 layer_uno 1.000 0.00 1
p0115          none relative 1.55328390e-03 -1.0E-10 1.0E+10 layer_uno 1.000 0.00 1
p0116          none relative 1.56703820e-03 -1.0E-10 1.0E+10 layer_uno 1.000 0.00 1
p0117          none relative 1.56847330e-03 -1.0E-10 1.0E+10 layer_uno 1.000 0.00 1
p0118          none relative 1.55501200e-03 -1.0E-10 1.0E+10 layer_uno 1.000 0.00 1
p0119          none relative 1.52440730e-03 -1.0E-10 1.0E+10 layer_uno 1.000 0.00 1
p0120          none relative 1.47691540e-03 -1.0E-10 1.0E+10 layer_uno 1.000 0.00 1
p0121          none relative 1.41399940e-03 -1.0E-10 1.0E+10 layer_uno 1.000 0.00 1
p0122          none relative 1.33845670e-03 -1.0E-10 1.0E+10 layer_uno 1.000 0.00 1
p0123          none relative 1.25271960e-03 -1.0E-10 1.0E+10 layer_uno 1.000 0.00 1
p0124          none relative 1.15964880e-03 -1.0E-10 1.0E+10 layer_uno 1.000 0.00 1
p0125          none relative 1.06597310e-03 -1.0E-10 1.0E+10 layer_uno 1.000 0.00 1
p0126          none relative 9.83346170e-04 -1.0E-10 1.0E+10 layer_uno 1.000 0.00 1
p0127          none relative 9.21893750e-04 -1.0E-10 1.0E+10 layer_uno 1.000 0.00 1
p0128          none relative 8.80587030e-04 -1.0E-10 1.0E+10 layer_uno 1.000 0.00 1
p0129          none relative 8.55643900e-04 -1.0E-10 1.0E+10 layer_uno 1.000 0.00 1
p0130          none relative 8.43018510e-04 -1.0E-10 1.0E+10 layer_uno 1.000 0.00 1
p0131          none relative 8.39661430e-04 -1.0E-10 1.0E+10 layer_uno 1.000 0.00 1
p0132          none relative 8.42818960e-04 -1.0E-10 1.0E+10 layer_uno 1.000 0.00 1
p0133          none relative 8.50904130e-04 -1.0E-10 1.0E+10 layer_uno 1.000 0.00 1
p0134          none relative 8.62748080e-04 -1.0E-10 1.0E+10 layer_uno 1.000 0.00 1
p0135          none relative 8.77003460e-04 -1.0E-10 1.0E+10 layer_uno 1.000 0.00 1
p0136          none relative 8.92206410e-04 -1.0E-10 1.0E+10 layer_uno 1.000 0.00 1
p0137          none relative 9.05825770e-04 -1.0E-10 1.0E+10 layer_uno 1.000 0.00 1
p0138          none relative 9.14768450e-04 -1.0E-10 1.0E+10 layer_uno 1.000 0.00 1
p0139          none relative 9.19185150e-04 -1.0E-10 1.0E+10 layer_uno 1.000 0.00 1
p0140          none relative 9.19748300e-04 -1.0E-10 1.0E+10 layer_uno 1.000 0.00 1
p0141          none relative 1.13164590e-03 -1.0E-10 1.0E+10 layer_uno 1.000 0.00 1
p0142          none relative 1.17362850e-03 -1.0E-10 1.0E+10 layer_uno 1.000 0.00 1
p0143          none relative 1.21997190e-03 -1.0E-10 1.0E+10 layer_uno 1.000 0.00 1
p0144          none relative 1.26881890e-03 -1.0E-10 1.0E+10 layer_uno 1.000 0.00 1
p0145          none relative 1.31809000e-03 -1.0E-10 1.0E+10 layer_uno 1.000 0.00 1
p0146          none relative 1.36642450e-03 -1.0E-10 1.0E+10 layer_uno 1.000 0.00 1
p0147          none relative 1.41333360e-03 -1.0E-10 1.0E+10 layer_uno 1.000 0.00 1
p0148          none relative 1.45635240e-03 -1.0E-10 1.0E+10 layer_uno 1.000 0.00 1
p0149          none relative 1.49389120e-03 -1.0E-10 1.0E+10 layer_uno 1.000 0.00 1
p0150          none relative 1.52058980e-03 -1.0E-10 1.0E+10 layer_uno 1.000 0.00 1
p0151          none relative 1.53580980e-03 -1.0E-10 1.0E+10 layer_uno 1.000 0.00 1
p0152          none relative 1.53778700e-03 -1.0E-10 1.0E+10 layer_uno 1.000 0.00 1
p0153          none relative 1.52410800e-03 -1.0E-10 1.0E+10 layer_uno 1.000 0.00 1
p0154          none relative 1.49273570e-03 -1.0E-10 1.0E+10 layer_uno 1.000 0.00 1
p0155          none relative 1.44433450e-03 -1.0E-10 1.0E+10 layer_uno 1.000 0.00 1
p0156          none relative 1.38067720e-03 -1.0E-10 1.0E+10 layer_uno 1.000 0.00 1
p0157          none relative 1.30483890e-03 -1.0E-10 1.0E+10 layer_uno 1.000 0.00 1
p0158          none relative 1.21915260e-03 -1.0E-10 1.0E+10 layer_uno 1.000 0.00 1
p0159          none relative 1.12687040e-03 -1.0E-10 1.0E+10 layer_uno 1.000 0.00 1
p0160          none relative 1.03287810e-03 -1.0E-10 1.0E+10 layer_uno 1.000 0.00 1
p0161          none relative 9.50566440e-04 -1.0E-10 1.0E+10 layer_uno 1.000 0.00 1
p0162          none relative 8.93382050e-04 -1.0E-10 1.0E+10 layer_uno 1.000 0.00 1
p0163          none relative 8.56824910e-04 -1.0E-10 1.0E+10 layer_uno 1.000 0.00 1
p0164          none relative 8.35900020e-04 -1.0E-10 1.0E+10 layer_uno 1.000 0.00 1
p0165          none relative 8.26224720e-04 -1.0E-10 1.0E+10 layer_uno 1.000 0.00 1
p0166          none relative 8.25190640e-04 -1.0E-10 1.0E+10 layer_uno 1.000 0.00 1
p0167          none relative 8.30223890e-04 -1.0E-10 1.0E+10 layer_uno 1.000 0.00 1
p0168          none relative 8.39868160e-04 -1.0E-10 1.0E+10 layer_uno 1.000 0.00 1
p0169          none relative 8.52944910e-04 -1.0E-10 1.0E+10 layer_uno 1.000 0.00 1
p0170          none relative 8.67662860e-04 -1.0E-10 1.0E+10 layer_uno 1.000 0.00 1
p0171          none relative 8.83344940e-04 -1.0E-10 1.0E+10 layer_uno 1.000 0.00 1
p0172          none relative 8.96984870e-04 -1.0E-10 1.0E+10 layer_uno 1.000 0.00 1
p0173          none relative 9.05766810e-04 -1.0E-10 1.0E+10 layer_uno 1.000 0.00 1
p0174          none relative 9.10095620e-04 -1.0E-10 1.0E+10 layer_uno 1.000 0.00 1
p0175          none relative 9.10887630e-04 -1.0E-10 1.0E+10 layer_uno 1.000 0.00 1
p0176          none relative 1.09259630e-03 -1.0E-10 1.0E+10 layer_uno 1.000 0.00 1
p0177          none relative 1.13217730e-03 -1.0E-10 1.0E+10 layer_uno 1.000 0.00 1
p0178          none relative 1.17715980e-03 -1.0E-10 1.0E+10 layer_uno 1.000 0.00 1
p0179          none relative 1.22532520e-03 -1.0E-10 1.0E+10 layer_uno 1.000 0.00 1
p0180          none relative 1.27441130e-03 -1.0E-10 1.0E+10 layer_uno 1.000 0.00 1
p0181          none relative 1.32311680e-03 -1.0E-10 1.0E+10 layer_uno 1.000 0.00 1
p0182          none relative 1.36979380e-03 -1.0E-10 1.0E+10 layer_uno 1.000 0.00 1
p0183          none relative 1.41431660e-03 -1.0E-10 1.0E+10 layer_uno 1.000 0.00 1
p0184          none relative 1.45330860e-03 -1.0E-10 1.0E+10 layer_uno 1.000 0.00 1
p0185          none relative 1.48183000e-03 -1.0E-10 1.0E+10 layer_uno 1.000 0.00 1
p0186          none relative 1.49823870e-03 -1.0E-10 1.0E+10 layer_uno 1.000 0.00 1
p0187          none relative 1.50041370e-03 -1.0E-10 1.0E+10 layer_uno 1.000 0.00 1
p0188          none relative 1.48566550e-03 -1.0E-10 1.0E+10 layer_uno 1.000 0.00 1
p0189          none relative 1.45296610e-03 -1.0E-10 1.0E+10 layer_uno 1.000 0.00 1
p0190          none relative 1.40290790e-03 -1.0E-10 1.0E+10 layer_uno 1.000 0.00 1
p0191          none relative 1.33836420e-03 -1.0E-10 1.0E+10 layer_uno 1.000 0.00 1
p0192          none relative 1.26185550e-03 -1.0E-10 1.0E+10 layer_uno 1.000 0.00 1
p0193          none relative 1.17643380e-03 -1.0E-10 1.0E+10 layer_uno 1.000 0.00 1
p0194          none relative 1.08617490e-03 -1.0E-10 1.0E+10 layer_uno 1.000 0.00 1
p0195          none relative 9.93033820e-04 -1.0E-10 1.0E+10 layer_uno 1.000 0.00 1
p0196          none relative 9.16323700e-04 -1.0E-10 1.0E+10 layer_uno 1.000 0.00 1
p0197          none relative 8.66202210e-04 -1.0E-10 1.0E+10 layer_uno 1.000 0.00 1
p0198          none relative 8.35209570e-04 -1.0E-10 1.0E+10 layer_uno 1.000 0.00 1
p0199          none relative 8.18461080e-04 -1.0E-10 1.0E+10 layer_uno 1.000 0.00 1
p0200          none relative 8.11725180e-04 -1.0E-10 1.0E+10 layer_uno 1.000 0.00 1
p0201          none relative 8.12841570e-04 -1.0E-10 1.0E+10 layer_uno 1.000 0.00 1
p0202          none relative 8.19500710e-04 -1.0E-10 1.0E+10 layer_uno 1.000 0.00 1
p0203          none relative 8.30379950e-04 -1.0E-10 1.0E+10 layer_uno 1.000 0.00 1
p0204          none relative 8.44259850e-04 -1.0E-10 1.0E+10 layer_uno 1.000 0.00 1
p0205          none relative 8.59394060e-04 -1.0E-10 1.0E+10 layer_uno 1.000 0.00 1
p0206          none relative 8.74654660e-04 -1.0E-10 1.0E+10 layer_uno 1.000 0.00 1
p0207          none relative 8.87259890e-04 -1.0E-10 1.0E+10 layer_uno 1.000 0.00 1
p0208          none relative 8.95709470e-04 -1.0E-10 1.0E+10 layer_uno 1.000 0.00 1
p0209          none relative 9.00181920e-04 -1.0E-10 1.0E+10 layer_uno 1.000 0.00 1
p0210          none relative 9.01146490e-04 -1.0E-10 1.0E+10 layer_uno 1.000 0.00 1
p0211          none relative 1.05144100e-03 -1.0E-10 1.0E+10 layer_uno 1.000 0.00 1
p0212          none relative 1.08815230e-03 -1.0E-10 1.0E+10 layer_uno 1.000 0.00 1
p0213          none relative 1.13136970e-03 -1.0E-10 1.0E+10 layer_uno 1.000 0.00 1
p0214          none relative 1.17809850e-03 -1.0E-10 1.0E+10 layer_uno 1.000 0.00 1
p0215          none relative 1.22676360e-03 -1.0E-10 1.0E+10 layer_uno 1.000 0.00 1
p0216          none relative 1.27528650e-03 -1.0E-10 1.0E+10 layer_uno 1.000 0.00 1
p0217          none relative 1.32259960e-03 -1.0E-10 1.0E+10 layer_uno 1.000 0.00 1
p0218          none relative 1.36814620e-03 -1.0E-10 1.0E+10 layer_uno 1.000 0.00 1
p0219          none relative 1.40838510e-03 -1.0E-10 1.0E+10 layer_uno 1.000 0.00 1
p0220          none relative 1.43890820e-03 -1.0E-10 1.0E+10 layer_uno 1.000 0.00 1
p0221          none relative 1.45627760e-03 -1.0E-10 1.0E+10 layer_uno 1.000 0.00 1
p0222          none relative 1.45836000e-03 -1.0E-10 1.0E+10 layer_uno 1.000 0.00 1
p0223          none relative 1.44210100e-03 -1.0E-10 1.0E+10 layer_uno 1.000 0.00 1
p0224          none relative 1.40755720e-03 -1.0E-10 1.0E+10 layer_uno 1.000 0.00 1
p0225          none relative 1.35550040e-03 -1.0E-10 1.0E+10 layer_uno 1.000 0.00 1
p0226          none relative 1.28927950e-03 -1.0E-10 1.0E+10 layer_uno 1.000 0.00 1
p0227          none relative 1.21201910e-03 -1.0E-10 1.0E+10 layer_uno 1.000 0.00 1
p0228          none relative 1.12700370e-03 -1.0E-10 1.0E+10 layer_uno 1.000 0.00 1
p0229          none relative 1.03819930e-03 -1.0E-10 1.0E+10 layer_uno 1.000 0.00 1
p0230          none relative 9.51848450e-04 -1.0E-10 1.0E+10 layer_uno 1.000 0.00 1
p0231          none relative 8.85875860e-04 -1.0E-10 1.0E+10 layer_uno 1.000 0.00 1
p0232          none relative 8.42388840e-04 -1.0E-10 1.0E+10 layer_uno 1.000 0.00 1
p0233          none relative 8.16475350e-04 -1.0E-10 1.0E+10 layer_uno 1.000 0.00 1
p0234          none relative 8.03248640e-04 -1.0E-10 1.0E+10 layer_uno 1.000 0.00 1
p0235          none relative 7.99145760e-04 -1.0E-10 1.0E+10 layer_uno 1.000 0.00 1
p0236          none relative 8.02112800e-04 -1.0E-10 1.0E+10 layer_uno 1.000 0.00 1
p0237          none relative 8.10052630e-04 -1.0E-10 1.0E+10 layer_uno 1.000 0.00 1
p0238          none relative 8.21814060e-04 -1.0E-10 1.0E+10 layer_uno 1.000 0.00 1
p0239          none relative 8.36014500e-04 -1.0E-10 1.0E+10 layer_uno 1.000 0.00 1
p0240          none relative 8.50950480e-04 -1.0E-10 1.0E+10 layer_uno 1.000 0.00 1
p0241          none relative 8.65282860e-04 -1.0E-10 1.0E+10 layer_uno 1.000 0.00 1
p0242          none relative 8.76941070e-04 -1.0E-10 1.0E+10 layer_uno 1.000 0.00 1
p0243          none relative 8.85143410e-04 -1.0E-10 1.0E+10 layer_uno 1.000 0.00 1
p0244          none relative 8.89675300e-04 -1.0E-10 1.0E+10 layer_uno 1.000 0.00 1
p0245          none relative 8.91010270e-04 -1.0E-10 1.0E+10 layer_uno 1.000 0.00 1
p0246          none relative 1.00885980e-03 -1.0E-10 1.0E+10 layer_uno 1.000 0.00 1
p0247          none relative 1.04229550e-03 -1.0E-10 1.0E+10 layer_uno 1.000 0.00 1
p0248          none relative 1.08299390e-03 -1.0E-10 1.0E+10 layer_uno 1.000 0.00 1
p0249          none relative 1.12813700e-03 -1.0E-10 1.0E+10 layer_uno 1.000 0.00 1
p0250          none relative 1.17578440e-03 -1.0E-10 1.0E+10 layer_uno 1.000 0.00 1
p0251          none relative 1.22453360e-03 -1.0E-10 1.0E+10 layer_uno 1.000 0.00 1
p0252          none relative 1.27261260e-03 -1.0E-10 1.0E+10 layer_uno 1.000 0.00 1
p0253          none relative 1.31959000e-03 -1.0E-10 1.0E+10 layer_uno 1.000 0.00 1
p0254          none relative 1.36153490e-03 -1.0E-10 1.0E+10 layer_uno 1.000 0.00 1
p0255          none relative 1.39391640e-03 -1.0E-10 1.0E+10 layer_uno 1.000 0.00 1
p0256          none relative 1.41255620e-03 -1.0E-10 1.0E+10 layer_uno 1.000 0.00 1
p0257          none relative 1.41428050e-03 -1.0E-10 1.0E+10 layer_uno 1.000 0.00 1
p0258          none relative 1.39661790e-03 -1.0E-10 1.0E+10 layer_uno 1.000 0.00 1
p0259          none relative 1.35973830e-03 -1.0E-10 1.0E+10 layer_uno 1.000 0.00 1
p0260          none relative 1.30563600e-03 -1.0E-10 1.0E+10 layer_uno 1.000 0.00 1
p0261          none relative 1.23783510e-03 -1.0E-10 1.0E+10 layer_uno 1.000 0.00 1
p0262          none relative 1.16023860e-03 -1.0E-10 1.0E+10 layer_uno 1.000 0.00 1
p0263          none relative 1.07715500e-03 -1.0E-10 1.0E+10 layer_uno 1.000 0.00 1
p0264          none relative 9.93332000e-04 -1.0E-10 1.0E+10 layer_uno 1.000 0.00 1
p0265          none relative 9.16966700e-04 -1.0E-10 1.0E+10 layer_uno 1.000 0.00 1
p0266          none relative 8.59403260e-04 -1.0E-10 1.0E+10 layer_uno 1.000 0.00 1
p0267          none relative 8.22071570e-04 -1.0E-10 1.0E+10 layer_uno 1.000 0.00 1
p0268          none relative 8.00452230e-04 -1.0E-10 1.0E+10 layer_uno 1.000 0.00 1
p0269          none relative 7.90320360e-04 -1.0E-10 1.0E+10 layer_uno 1.000 0.00 1
p0270          none relative 7.88587060e-04 -1.0E-10 1.0E+10 layer_uno 1.000 0.00 1
p0271          none relative 7.92868200e-04 -1.0E-10 1.0E+10 layer_uno 1.000 0.00 1
p0272          none relative 8.01760810e-04 -1.0E-10 1.0E+10 layer_uno 1.000 0.00 1
p0273          none relative 8.14002630e-04 -1.0E-10 1.0E+10 layer_uno 1.000 0.00 1
p0274          none relative 8.27961280e-04 -1.0E-10 1.0E+10 layer_uno 1.000 0.00 1
p0275          none relative 8.42349990e-04 -1.0E-10 1.0E+10 layer_uno 1.000 0.00 1
p0276          none relative 8.55529810e-04 -1.0E-10 1.0E+10 layer_uno 1.000 0.00 1
p0277          none relative 8.66367730e-04 -1.0E-10 1.0E+10 layer_uno 1.000 0.00 1
p0278          none relative 8.74135710e-04 -1.0E-10 1.0E+10 layer_uno 1.000 0.00 1
p0279          none relative 8.78744640e-04 -1.0E-10 1.0E+10 layer_uno 1.000 0.00 1
p0280          none relative 8.80539520e-04 -1.0E-10 1.0E+10 layer_uno 1.000 0.00 1
p0281          none relative 9.65617310e-04 -1.0E-10 1.0E+10 layer_uno 1.000 0.00 1
p0282          none relative 9.95501450e-04 -1.0E-10 1.0E+10 layer_uno 1.000 0.00 1
p0283          none relative 1.03311510e-03 -1.0E-10 1.0E+10 layer_uno 1.000 0.00 1
p0284          none relative 1.07617320e-03 -1.0E-10 1.0E+10 layer_uno 1.000 0.00 1
p0285          none relative 1.12311310e-03 -1.0E-10 1.0E+10 layer_uno 1.000 0.00 1
p0286          none relative 1.17200410e-03 -1.0E-10 1.0E+10 layer_uno 1.000 0.00 1
p0287          none relative 1.22115730e-03 -1.0E-10 1.0E+10 layer_uno 1.000 0.00 1
p0288          none relative 1.27026030e-03 -1.0E-10 1.0E+10 layer_uno 1.000 0.00 1
p0289          none relative 1.31475010e-03 -1.0E-10 1.0E+10 layer_uno 1.000 0.00 1
p0290          none relative 1.34944790e-03 -1.0E-10 1.0E+10 layer_uno 1.000 0.00 1
p0291          none relative 1.36900890e-03 -1.0E-10 1.0E+10 layer_uno 1.000 0.00 1
p0292          none relative 1.37037580e-03 -1.0E-10 1.0E+10 layer_uno 1.000 0.00 1
p0293          none relative 1.35143370e-03 -1.0E-10 1.0E+10 layer_uno 1.000 0.00 1
p0294          none relative 1.31247460e-03 -1.0E-10 1.0E+10 layer_uno 1.000 0.00 1
p0295          none relative 1.25630520e-03 -1.0E-10 1.0E+10 layer_uno 1.000 0.00 1
p0296          none relative 1.18769160e-03 -1.0E-10 1.0E+10 layer_uno 1.000 0.00 1
p0297          none relative 1.11115970e-03 -1.0E-10 1.0E+10 layer_uno 1.000 0.00 1
p0298          none relative 1.03154190e-03 -1.0E-10 1.0E+10 layer_uno 1.000 0.00 1
p0299          none relative 9.54539510e-04 -1.0E-10 1.0E+10 layer_uno 1.000 0.00 1
p0300          none relative 8.87564060e-04 -1.0E-10 1.0E+10 layer_uno 1.000 0.00 1
p0301          none relative 8.37664130e-04 -1.0E-10 1.0E+10 layer_uno 1.000 0.00 1
p0302          none relative 8.05150940e-04 -1.0E-10 1.0E+10 layer_uno 1.000 0.00 1
p0303          none relative 7.87208980e-04 -1.0E-10 1.0E+10 layer_uno 1.000 0.00 1
p0304          none relative 7.79747620e-04 -1.0E-10 1.0E+10 layer_uno 1.000 0.00 1
p0305          none relative 7.79770690e-04 -1.0E-10 1.0E+10 layer_uno 1.000 0.00 1
p0306          none relative 7.85078150e-04 -1.0E-10 1.0E+10 layer_uno 1.000 0.00 1
p0307          none relative 7.94443060e-04 -1.0E-10 1.0E+10 layer_uno 1.000 0.00 1
p0308          none relative 8.06595660e-04 -1.0E-10 1.0E+10 layer_uno 1.000 0.00 1
p0309          none relative 8.20023760e-04 -1.0E-10 1.0E+10 layer_uno 1.000 0.00 1
p0310          none relative 8.33423840e-04 -1.0E-10 1.0E+10 layer_uno 1.000 0.00 1
p0311          none relative 8.45556410e-04 -1.0E-10 1.0E+10 layer_uno 1.000 0.00 1
p0312          none relative 8.55581790e-04 -1.0E-10 1.0E+10 layer_uno 1.000 0.00 1
p0313          none relative 8.62865160e-04 -1.0E-10 1.0E+10 layer_uno 1.000 0.00 1
p0314          none relative 8.67553130e-04 -1.0E-10 1.0E+10 layer_uno 1.000 0.00 1
p0315          none relative 8.69911630e-04 -1.0E-10 1.0E+10 layer_uno 1.000 0.00 1
p0316          none relative 9.22834460e-04 -1.0E-10 1.0E+10 layer_uno 1.000 0.00 1
p0317          none relative 9.49053470e-04 -1.0E-10 1.0E+10 layer_uno 1.000 0.00 1
p0318          none relative 9.83175930e-04 -1.0E-10 1.0E+10 layer_uno 1.000 0.00 1
p0319          none relative 1.02403230e-03 -1.0E-10 1.0E+10 layer_uno 1.000 0.00 1
p0320          none relative 1.06986200e-03 -1.0E-10 1.0E+10 layer_uno 1.000 0.00 1
p0321          none relative 1.11909340e-03 -1.0E-10 1.0E+10 layer_uno 1.000 0.00 1
p0322          none relative 1.17024570e-03 -1.0E-10 1.0E+10 layer_uno 1.000 0.00 1
p0323          none relative 1.22213340e-03 -1.0E-10 1.0E+10 layer_uno 1.000 0.00 1
p0324          none relative 1.26954250e-03 -1.0E-10 1.0E+10 layer_uno 1.000 0.00 1
p0325          none relative 1.30637260e-03 -1.0E-10 1.0E+10 layer_uno 1.000 0.00 1
p0326          none relative 1.32754610e-03 -1.0E-10 1.0E+10 layer_uno 1.000 0.00 1
p0327          none relative 1.32912180e-03 -1.0E-10 1.0E+10 layer_uno 1.000 0.00 1
p0328          none relative 1.30919090e-03 -1.0E-10 1.0E+10 layer_uno 1.000 0.00 1
p0329          none relative 1.26854550e-03 -1.0E-10 1.0E+10 layer_uno 1.000 0.00 1
p0330          none relative 1.21062900e-03 -1.0E-10 1.0E+10 layer_uno 1.000 0.00 1
p0331          none relative 1.14159570e-03 -1.0E-10 1.0E+10 layer_uno 1.000 0.00 1
p0332          none relative 1.06696680e-03 -1.0E-10 1.0E+10 layer_uno 1.000 0.00 1
p0333          none relative 9.92007190e-04 -1.0E-10 1.0E+10 layer_uno 1.000 0.00 1
p0334          none relative 9.21963860e-04 -1.0E-10 1.0E+10 layer_uno 1.000 0.00 1
p0335          none relative 8.63197150e-04 -1.0E-10 1.0E+10 layer_uno 1.000 0.00 1
p0336          none relative 8.19964310e-04 -1.0E-10 1.0E+10 layer_uno 1.000 0.00 1
p0337          none relative 7.91798520e-04 -1.0E-10 1.0E+10 layer_uno 1.000 0.00 1
p0338          none relative 7.76760470e-04 -1.0E-10 1.0E+10 layer_uno 1.000 0.00 1
p0339          none relative 7.71427320e-04 -1.0E-10 1.0E+10 layer_uno 1.000 0.00 1
p0340          none relative 7.72795320e-04 -1.0E-10 1.0E+10 layer_uno 1.000 0.00 1
p0341          none relative 7.78712860e-04 -1.0E-10 1.0E+10 layer_uno 1.000 0.00 1
p0342          none relative 7.88144250e-04 -1.0E-10 1.0E+10 layer_uno 1.000 0.00 1
p0343          none relative 7.99636500e-04 -1.0E-10 1.0E+10 layer_uno 1.000 0.00 1
p0344          none relative 8.12170160e-04 -1.0E-10 1.0E+10 layer_uno 1.000 0.00 1
p0345          none relative 8.24456480e-04 -1.0E-10 1.0E+10 layer_uno 1.000 0.00 1
p0346          none relative 8.35493490e-04 -1.0E-10 1.0E+10 layer_uno 1.000 0.00 1
p0347          none relative 8.44800340e-04 -1.0E-10 1.0E+10 layer_uno 1.000 0.00 1
p0348          none relative 8.51860060e-04 -1.0E-10 1.0E+10 layer_uno 1.000 0.00 1
p0349          none relative 8.56627250e-04 -1.0E-10 1.0E+10 layer_uno 1.000 0.00 1
p0350          none relative 8.59378040e-04 -1.0E-10 1.0E+10 layer_uno 1.000 0.00 1
p0351          none relative 8.81114040e-04 -1.0E-10 1.0E+10 layer_uno 1.000 0.00 1