# MODFLOW2005 multiplier Package Parent MD
         1
M1
         8         1(FREE)                       0
.01939197794 .01828614090 .01659318193 .01428053975 .01148527428 .00855496148 .00590452155 .00376817938 .00218894842 .00112732847 5.0432866E-4 1.9653297E-4 6.8434383E-5 2.2246934E-5 7.1714311E-6 2.4557175E-6 9.4345525E-7 4.1414404E-7 2.0578402E-7 1.1346019E-7 6.8004125E-8
.02241393254 .02161453899 .02002306058 .01755393273 .01433580524 .01083563082 .00770500981 .00519171950 .00324080240 .00178627899 8.3035752E-4 3.2365702E-4 1.0810039E-4 3.2219303E-5 9.1578968E-6 2.7336944E-6 9.4009706E-7 3.8252229E-7 1.8119369E-7 9.7162788E-8 5.7439480E-8
.02447719654 .02380918151 .02203456343 .01918908009 .01555965110 .01171357576 .00861969461 .00631102831 .00445533111 .00282167504 .00146646841 6.1772135E-4 2.1289594E-4 6.1241804E-5 1.5452211E-5 3.8523468E-6 1.1279139E-6 4.0593893E-7 1.7620221E-7 8.9218813E-8 5.1080888E-8
.02491982201 .02397411147 .02152157261 .01795453838 .01407003686 .01035132057 .00801107984 .00654388531 .00539911550 .00418506421 .00260804141 .00129494548 5.0424290E-4 1.5243215E-4 3.5894106E-5 7.2057528E-6 1.7047635E-6 5.1467087E-7 1.9550161E-7 9.0068262E-8 4.8658504E-8
.02349171728 .02186749475 .01848337129 .01420682022 .01010050042 .00762564006 .00649251269 .00602254953 .00570600889 .00529812752 .00430059232 .00269508951 .00127093706 4.3970286E-4 1.0852385E-4 1.8701771E-5 3.2913823E-6 7.9569179E-7 2.5193244E-7 1.0136738E-7 5.0093077E-8
.02064472326 .01832607844 .01443287135 .01024261123 .00707560133 .00581875525 .00545651734 .00574766782 .00614830691 .00647708713 .00651153892 .00510015091 .00288748889 .00113609950 2.9526969E-4 5.1941371E-5 7.7197061E-6 1.4482785E-6 3.6874289E-7 1.2562239E-7 5.5273557E-8
.01732885814 .01478210681 .01125603690 .00803547724 .00605663995 .00553073162 .00585159586 .00653983981 .00756110212 .00884757547 .00976967982 .00862635945 .00543240289 .00231646258 6.2786432E-4 1.1161821E-4 1.6275965E-5 2.6506857E-6 5.6411561E-7 1.6350272E-7 6.3456296E-8
.01431394155 .01198826404 .00923450852 .00703669838 .00599111339 .00621670667 .00733022951 .00840281267 .01001327544 .01221987569 .01396440257 .01292966588 .00856969505 .00375741046 .00104591224 1.9397415E-4 2.8846547E-5 4.4012994E-6 8.2804838E-7 2.1000474E-7 7.2574564E-8
.01191057091 .01000888107 .00802202345 .00663854315 .00629129461 .00711421155 .00860331736 .01025300328 .01248485674 .01541003063 .01772478937 .01671591847 .01142119597 .00515824229 .00148470097 2.8820600E-4 4.3716552E-5 6.3931895E-6 1.1000635E-6 2.5150286E-7 7.9035679E-8
.01011476453 .00867644367 .00733081219 .00655410506 .00681126652 .00786405749 .00922573090 .01096287839 .01340366345 .01652743215 .01904830266 .01837410678 .01318142694 .00632364428 .00191294645 3.8414495E-4 5.7830964E-5 7.9914037E-6 1.2715791E-6 2.6851405E-7 7.8850195E-8
.00877838927 .00777032606 .00694775198 .00664214291 .00708381250 .00779429240 .00866831096 .01000769586 .01210325068 .01485513110 .01725889876 .01733293700 .01354741140 .00726846187 .00237905554 4.7282431E-4 6.6266191E-5 8.4162531E-6 1.2395637E-6 2.4727368E-7 7.0107506E-8
.00770431327 .00702375881 .00651882601 .00636098481 .00658605037 .00686391275 .00719337656 .00802904417 .00959779341 .01177326196 .01385442249 .01457853420 .01269257661 .00796589503 .00286996658 5.3792252E-4 6.5313684E-5 7.2893950E-6 9.9339049E-7 1.9258180E-7 5.4855912E-8
.00673778625 .00626715928 .00590202546 .00570451012 .00567000891 .00567136224 .00570530259 .00616638893 .00736678356 .00911447704 .01087705970 .01179918912 .01120022451 .00835431139 .00331319842 5.3466204E-4 5.1758650E-5 4.9549271E-6 6.4119285E-7 1.2661972E-7 3.8036553E-8
.00579989557 .00545336914 .00514370621 .00488211902 .00467800722 .00460468834 .00460267910 .00495880439 .00596524537 .00748917207 .00913538582 .01008680049 .00972220296 .00838996869 .00324867055 3.9261245E-4 2.9006971E-5 2.5017187E-6 3.3380375E-7 7.2238332E-8 2.4127327E-8
.00487177985 .00459876340 .00432782699 .00405643395 .00380231507 .00365827221 .00370711749 .00411930273 .00495297294 .00624869645 .00777085336 .00875680988 .00852758548 .00600520850 .00168345636 1.6306209E-4 1.0163008E-5 9.4205269E-7 1.4894616E-7 3.8330189E-8 1.4829073E-8
.00397087800 .00373880546 .00350212507 .00326132250 .00302146985 .00288713236 .00293986668 .00321980920 .00374679947 .00454322861 .00523190382 .00520599008 .00409764483 .00203451603 4.4274078E-4 3.4721906E-5 2.4461020E-6 3.1414798E-7 6.5813806E-8 2.0994279E-8 9.4803552E-9
.00313460911 .00292251294 .00270702520 .00249220476 .00229672929 .00216313743 .00213345656 .00220906857 .00235999868 .00249260616 .00236177000 .00183905645 .00104586119 3.6196534E-4 6.3598822E-5 6.2924872E-6 7.1570565E-7 1.2550352E-7 3.3846100E-8 1.3035425E-8 6.6810083E-9
.00240226863 .00220434187 .00200677902 .00181412589 .00163729970 .00149113747 .00138373095 .00130131058 .00120827075 .00105124812 7.9124707E-4 4.7373247E-4 2.0536003E-4 5.8673452E-5 1.0855176E-5 1.5835980E-6 2.6931648E-7 6.3872786E-8 2.1308333E-8 9.4925443E-9 5.3144517E-9
.00179635229 .00161519794 .00143750834 .00126587574 .00110453438 9.5696674E-4 8.2194957E-4 6.9070619E-4 5.5110472E-4 3.9785215E-4 2.4436220E-4 1.2005275E-4 4.4816544E-5 1.2472698E-5 2.7413993E-6 5.6290540E-7 1.3351226E-7 4.0743049E-8 1.6136162E-8 8.0013933E-9 4.7385224E-9
.00131863082 .00115861193 .00100430224 8.5698953E-4 7.1820352E-4 5.8881959E-4 4.6830857E-4 3.5521075E-4 2.4976779E-4 1.5665325E-4 8.3982857E-5 3.7133114E-5 1.3330550E-5 3.9681600E-6 1.0543552E-6 2.8223263E-7 8.5884223E-8 3.1646592E-8 1.4201072E-8 7.5705592E-9 4.6318817E-9
9.5615332E-4 8.2001413E-4 6.9119367E-4 5.7058649E-4 4.5912077E-4 3.5758338E-4 2.6663451E-4 1.8717731E-4 1.2086697E-4 6.9846808E-5 3.5190493E-5 1.5210839E-5 5.6635294E-6 1.8774837E-6 5.9091904E-7 1.9186853E-7 6.9200850E-8 2.8861902E-8 1.4001796E-8 7.7816071E-9 4.8389766E-9
