# MODFLOW2005 multiplier Package Parent MD
         1
M1
         8         1(FREE)                       0
.00330349931 .00330260745 .00330150926 .00330018876 .00329863554 .00329684828 .00329483746 .00329262494 .00329024238 .00328772921 .00328512857 .00328248349 .00327983807 .00327723820 .00327472886 .00327234916 .00327012592 .00326806959 .00326617854 .00326444435 .00326285504
.00330540988 .00330459593 .00330356108 .00330228343 .00330074630 .00329894320 .00329688277 .00329458573 .00329208357 .00328941900 .00328664091 .00328379527 .00328093166 .00327810573 .00327537509 .00327279327 .00327039984 .00326820798 .00326621407 .00326440638 .00326276856
.00330739964 .00330669224 .00330575336 .00330455511 .00330307412 .00330129702 .00329923094 .00329689058 .00329429973 .00329149920 .00328854534 .00328548343 .00328236962 .00327927263 .00327626547 .00327341983 .00327080049 .00326842664 .00326629488 .00326439094 .00326269332
.00330945237 .00330888293 .00330807600 .00330699726 .00330561763 .00330391501 .00330189790 .00329956670 .00329692846 .00329401061 .00329088250 .00328758401 .00328418359 .00328076860 .00327743179 .00327425609 .00327134957 .00326874181 .00326643368 .00326440837 .00326263787
.00331154183 .00331114278 .00331050498 .00330958634 .00330834762 .00330677832 .00330486964 .00330260127 .00329996263 .00329696003 .00329364056 .00329007899 .00328635247 .00328256940 .00327886250 .00327531445 .00327204815 .00326915650 .00326663517 .00326446477 .00326260880
.00331362993 .00331343309 .00331300202 .00331228657 .00331124427 .00330986258 .00330810309 .00330593047 .00330331069 .00330023655 .00329672792 .00329288804 .00328880567 .00328459454 .00328045451 .00327650842 .00327286660 .00326965338 .00326689154 .00326455935 .00326260909
.00331566442 .00331569861 .00331551217 .00331504961 .00331425852 .00331309672 .00331151625 .00330945022 .00330684250 .00330367428 .00329998068 .00329586162 .00329142512 .00328677195 .00328213116 .00327773699 .00327371548 .00327018317 .00326717921 .00326468339 .00326263768
.00331757490 .00331785691 .00331793818 .00331775875 .00331725051 .00331633493 .00331496480 .00331302449 .00331042346 .00330713877 .00330322504 .00329879475 .00329397813 .00328891916 .00328381590 .00327895482 .00327454137 .00327070205 .00326747268 .00326482560 .00326269156
.00331927301 .00331979533 .00332013571 .00332022919 .00332000949 .00331935918 .00331826442 .00331649360 .00331389599 .00331046130 .00330628178 .00330150516 .00329629874 .00329084284 .00328534750 .00328006601 .00327528697 .00327117546 .00326775316 .00326497752 .00326276824
.00332066280 .00332138577 .00332193713 .00332224624 .00332220922 .00332194157 .00332125499 .00331969153 .00331707540 .00331344592 .00330896029 .00330381996 .00329823546 .00329242361 .00328660923 .00328099038 .00327590225 .00327158281 .00326801041 .00326513427 .00326286617
.00332166374 .00332252467 .00332321441 .00332366392 .00332387300 .00332409139 .00332381367 .00332242058 .00331973000 .00331585677 .00331104496 .00330555473 .00329962787 .00329350042 .00328741528 .00328161636 .00327637881 .00327191138 .00326823343 .00326528955 .00326298277
.00332223165 .00332317670 .00332397862 .00332460177 .00332510767 .00332567391 .00332567577 .00332437631 .00332155220 .00331740780 .00331229454 .00330652432 .00330034694 .00329399684 .00328774643 .00328187339 .00327660936 .00327210610 .00326839619 .00326543172 .00326311364
.00332234774 .00332332230 .00332419840 .00332495609 .00332560277 .00332615255 .00332628343 .00332515474 .00332217093 .00331778779 .00331246614 .00330655573 .00330029039 .00329386811 .00328758773 .00328176618 .00327657989 .00327214277 .00326848281 .00326555346 .00326325650
.00332200958 .00332294141 .00332380543 .00332458311 .00332523430 .00332557382 .00332563523 .00332440073 .00332125774 .00331676629 .00331139188 .00330552498 .00329938230 .00329307598 .00328695461 .00328133394 .00327631966 .00327203570 .00326850126 .00326566046 .00326341547
.00332123864 .00332204489 .00332278134 .00332341731 .00332389675 .00332413476 .00332377313 .00332199855 .00331879536 .00331437056 .00330910936 .00330346642 .00329761569 .00329169752 .00328597975 .00328065132 .00327587496 .00327182464 .00326848159 .00326577184 .00326360110
.00332008702 .00332069578 .00332120457 .00332156780 .00332170265 .00332146692 .00332052415 .00331845085 .00331520513 .00331090295 .00330595189 .00330072108 .00329532821 .00328992392 .00328469182 .00327973505 .00327530613 .00327157697 .00326847010 .00326591353 .00326382573
.00331863194 .00331899774 .00331921648 .00331922758 .00331893510 .00331817559 .00331673078 .00331438589 .00331110553 .00330703147 .00330251847 .00329774307 .00329284505 .00328795667 .00328321343 .00327875010 .00327478641 .00327138469 .00326851174 .00326610535 .00326409634
.00331696232 .00331707263 .00331698864 .00331664245 .00331593877 .00331475029 .00331294176 .00331041538 .00330718239 .00330338274 .00329923954 .00329489849 .00329047700 .00328608980 .00328185529 .00327790200 .00327436218 .00327127522 .00326861975 .00326634963 .00326440975
.00331516354 .00331503385 .00331467489 .00331402099 .00331299166 .00331149853 .00330946643 .00330686347 .00330373111 .00330018604 .00329637885 .00329243118 .00328844496 .00328451845 .00328075119 .00327724140 .00327406757 .00327125493 .00326878904 .00326663627 .00326475491
.00331330707 .00331297046 .00331238705 .00331150003 .00331024774 .00330857325 .00330644047 .00330385180 .00330085925 .00329755781 .00329405890 .00329046278 .00328685765 .00328332648 .00327994869 .00327679476 .00327391362 .00327132141 .00326900838 .00326695052 .00326511737
.00331144648 .00331094296 .00331019179 .00330914793 .00330776768 .00330601700 .00330388243 .00330138064 .00329856165 .00329550154 .00329228684 .00328900038 .00328571775 .00328250855 .00327943569 .00327655097 .00327388837 .00327146035 .00326926170 .00326727628 .00326548249
