# MODFLOW2005 multiplier Package Parent MD
         1
M1
         8         1(FREE)                       0
.01736517347 .01641888663 .01496938564 .01297728332 .01054153310 .00794558910 .00555145999 .00358573137 .00211014320 .00110388796 5.0313126E-4 1.9995297E-4 7.0899468E-5 2.3394359E-5 7.6218997E-6 2.6254215E-6 1.0106153E-6 4.4371119E-7 2.2053465E-7 1.2173108E-7 7.3114999E-8
.02008249384 .01942217139 .01809380042 .01600727289 .01323785363 .01015014753 .00730848655 .00497164086 .00313215719 .00174868847 8.2730231E-4 3.2863463E-4 1.1166412E-4 3.3754262E-5 9.6941705E-6 2.9100280E-6 1.0016184E-6 4.0741639E-7 1.9311736E-7 1.0377852E-7 6.1552085E-8
.02199309460 .02147637374 .02003465601 .01767298813 .01458390660 .01119034978 .00833795173 .00613123535 .00433726195 .00276573234 .00145768477 6.2301402E-4 2.1733546E-4 6.3162616E-5 1.6083291E-5 4.0363620E-6 1.1833978E-6 4.2662043E-7 1.8585162E-7 9.4580343E-8 5.4459237E-8
.02251812955 .02179415738 .01979917841 .01682994199 .01352160158 .01021271196 .00798720744 .00649497113 .00531750282 .00411658935 .00258746329 .00129143311 5.0396360E-4 1.5272382E-4 3.6158924E-5 7.3247081E-6 1.7405384E-6 5.2975182E-7 2.0320479E-7 9.4548890E-8 5.1552465E-8
.02141082946 .02011800166 .01730487883 .01365671214 .01006449901 .00783467647 .00669142184 .00610457303 .00569165382 .00526368687 .00426164326 .00264582926 .00123460339 4.2388052E-4 1.0441902E-4 1.8091438E-5 3.2432264E-6 7.9943846E-7 2.5770065E-7 1.0532989E-7 5.2745693E-8
.01901210299 .01710030510 .01378763817 .01012675713 .00728192421 .00612293872 .00570950208 .00584831547 .00614958879 .00643801890 .00638630320 .00491039731 .00272863457 .00105882555 2.7400066E-4 4.8555071E-5 7.4024051E-6 1.4274342E-6 3.7242745E-7 1.2950721E-7 5.7943526E-8
.01611488434 .01395390389 .01089297706 .00803579568 .00624778886 .00576224194 .00595324063 .00648247889 .00743003649 .00865323834 .00944059571 .00818512901 .00506041504 .00213085257 5.7582993E-4 1.0348421E-4 1.5472961E-5 2.5935803E-6 5.6683316E-7 1.6805652E-7 6.6450591E-8
.01340922919 .01138458127 .00895323932 .00698678702 .00604668757 .00624308926 .00716885863 .00811562322 .00966081196 .01179200423 .01339229728 .01225165248 .00801677614 .00348528262 9.6893194E-4 1.8172013E-4 2.7649723E-5 4.3308565E-6 8.3535197E-7 2.1656381E-7 7.6251379E-8
.01121491475 .00952090955 .00774101520 .00649934087 .00620267359 .00696549833 .00827857300 .00980081994 .01197564974 .01485406082 .01709360246 .01605268794 .01090553355 .00490798273 .00141454054 2.7707313E-4 4.2831960E-5 6.3959080E-6 1.1234489E-6 2.6181862E-7 8.3696274E-8
.00956854288 .00826420922 .00704792337 .00635963407 .00665581529 .00765006236 .00887200605 .01051502881 .01293571020 .01608883867 .01866253089 .01805978663 .01297796048 .00624336155 .00189915878 3.8454634E-4 5.8466501E-5 8.1868862E-6 1.3224230E-6 2.8356860E-7 8.4494978E-8
.00835507687 .00743250912 .00669553502 .00645819939 .00693734640 .00759993323 .00838795781 .00968498598 .01180552905 .01465395689 .01721339935 .01744525011 .01374005108 .00743094689 .00245446035 4.9162915E-4 6.9157059E-5 8.8461336E-6 1.3163497E-6 2.6571254E-7 7.6239909E-8
.00739317439 .00676844043 .00632299910 .00621808024 .00647234020 .00672411112 .00700671270 .00783053676 .00943809643 .01172217566 .01398691290 .01491197186 .01312920409 .00832504507 .00303223113 5.7266606E-4 6.9828008E-5 7.8377827E-6 1.0769092E-6 2.1079456E-7 6.0634355E-8
.00653125658 .00609830300 .00577448393 .00561442230 .00559972016 .00558275173 .00558772626 .00604495599 .00727338009 .00910417950 .01102588183 .01214950483 .01169111308 .00881244067 .00353862191 5.7673250E-4 5.6255755E-5 5.4274685E-6 7.0842562E-7 1.4115067E-7 4.2757077E-8
.00568742700 .00536716203 .00508523237 .00484701125 .00465221063 .00456775355 .00454863888 .00489885793 .00592005191 .00749518498 .00925815785 .01038979634 .01018064968 .00889158176 .00348162549 4.2641607E-4 3.1908827E-5 2.7843194E-6 3.7538433E-7 8.1971263E-8 2.7579926E-8
.00483817210 .00458418058 .00433158257 .00407429541 .00382566791 .00367573170 .00371603734 .00412850121 .00497590622 .00630634770 .00790412919 .00902699559 .00892852439 .00637964765 .00181068635 1.7815084E-4 1.1317197E-5 1.0655210E-6 1.7046262E-7 4.4257556E-8 1.7230849E-8
.00399706895 .00377930573 .00355509393 .00332305450 .00308716369 .00295231737 .00300529743 .00329331429 .00383985083 .00466907027 .00540988614 .00544463597 .00434423304 .00218661977 4.8220283E-4 3.8427488E-5 2.7739585E-6 3.6204609E-7 7.6702900E-8 2.4658393E-8 1.1190679E-8
.00319987555 .00299832125 .00279138171 .00258229870 .00238972681 .00225812725 .00223249602 .00231710618 .00248271899 .00263388170 .00251800641 .00198315468 .00114229369 4.0069105E-4 7.1444843E-5 7.1944297E-6 8.3155550E-7 1.4768141E-7 4.0179565E-8 1.5564648E-8 8.0044400E-9
.00248732872 .00229609772 .00210342795 .00191359333 .00173784354 .00159213156 .00148577575 .00140521814 .00131306723 .00115172245 8.7631135E-4 5.3100111E-4 2.3304356E-4 6.7431464E-5 1.2644130E-5 1.8699292E-6 3.2129276E-7 7.6787262E-8 2.5753589E-8 1.1511084E-8 6.4553734E-9
.00188609417 .00170775966 .00153129779 .00135919156 .00119582657 .00104499855 9.0556512E-4 7.6810997E-4 6.1911647E-4 4.5205467E-4 2.8112847E-4 1.3983675E-4 5.2814574E-5 1.4861162E-5 3.3005466E-6 6.8376981E-7 1.6310683E-7 4.9949089E-8 1.9823140E-8 9.8392689E-9 5.8275245E-9
.00140317727 .00124259565 .00108632858 9.3559448E-4 7.9193784E-4 6.5625942E-4 5.2795288E-4 4.0536879E-4 2.8875736E-4 1.8357491E-4 9.9748560E-5 4.4653123E-5 1.6203000E-5 4.8670003E-6 1.3026602E-6 3.5046420E-7 1.0690508E-7 3.9420026E-8 1.7685707E-8 9.4213583E-9 5.7580331E-9
.00103036095 8.9118982E-4 7.5819089E-4 6.3225716E-4 5.1436707E-4 4.0540134E-4 3.0617038E-4 2.1785961E-4 1.4267462E-4 8.3624306E-5 4.2702132E-5 1.8677849E-5 7.0225020E-6 2.3455462E-6 7.4214218E-7 2.4168686E-7 8.7244558E-8 3.6369092E-8 1.7622106E-8 9.7781842E-9 6.0699612E-9
