# MODFLOW2005 multiplier Package Parent MD
         1
M1
         8         1(FREE)                       0
.00314679872 .00314630528 .00314555610 .00314453193 .00314321968 .00314161604 .00313973031 .00313758388 .00313520852 .00313264430 .00312993554 .00312712702 .00312426485 .00312139659 .00311856893 .00311582272 .00311318715 .00311067585 .00310829087 .00310602762 .00310387793
.00314938921 .00314899064 .00314831840 .00314734683 .00314605645 .00314443894 .00314250208 .00314026672 .00313776523 .00313504152 .00313214600 .00312912707 .00312603663 .00312293199 .00311987205 .00311691140 .00311409135 .00311142833 .00310892267 .00310656688 .00310434878
.00315203590 .00315176076 .00315119684 .00315031190 .00314907973 .00314748553 .00314553629 .00314324803 .00314064695 .00313777617 .00313469377 .00313144850 .00312809906 .00312471549 .00312137137 .00311813859 .00311508216 .00311222419 .00310956539 .00310709600 .00310479908
.00315471903 .00315459862 .00315417751 .00315341635 .00315228320 .00315075535 .00314884221 .00314654730 .00314388258 .00314088011 .00313761076 .00313411917 .00313047613 .00312676951 .00312309162 .00311952513 .00311617543 .00311307450 .00311022711 .00310762114 .00310523365
.00315740844 .00315747519 .00315723255 .00315663250 .00315563337 .00315422476 .00315240082 .00315014650 .00314745929 .00314435328 .00314088008 .00313711682 .00313314297 .00312906649 .00312501718 .00312107780 .00311736780 .00311397794 .00311090832 .00310814437 .00310565534
.00316006159 .00316034748 .00316031956 .00315992058 .00315910578 .00315786461 .00315616509 .00315397942 .00315128610 .00314808742 .00314441122 .00314036127 .00313602843 .00313152629 .00312704725 .00312271154 .00311862718 .00311491425 .00311159789 .00310866142 .00310606363
.00316262085 .00316315531 .00316337910 .00316322797 .00316264747 .00316160001 .00316004854 .00315794128 .00315523535 .00315192278 .00314804624 .00314370786 .00313901713 .00313407624 .00312910517 .00312432748 .00311986590 .00311583326 .00311226995 .00310916053 .00310645426
.00316500958 .00316581050 .00316630914 .00316643461 .00316611686 .00316528516 .00316390965 .00316189808 .00315917411 .00315572634 .00315161643 .00314695960 .00314188686 .00313654118 .00313111427 .00312587830 .00312102952 .00311668995 .00311289678 .00310962760 .00310682117
.00316713152 .00316819308 .00316895952 .00316935204 .00316930205 .00316870356 .00316756758 .00316569222 .00316294667 .00315933224 .00315494669 .00314993927 .00314447644 .00313873538 .00313291922 .00312726976 .00312206008 .00311744789 .00311345706 .00311005130 .00310715899
.00316888084 .00317016517 .00317115408 .00317175935 .00317187266 .00317162298 .00317085644 .00316915550 .00316636936 .00316254763 .00315785013 .00315247747 .00314663725 .00314054097 .00313440573 .00312842216 .00312290652 .00311808385 .00311393766 .00311042390 .00310746345
.00317016491 .00317160981 .00317275180 .00317349965 .00317384316 .00317404459 .00317364649 .00317208781 .00316921268 .00316514107 .00316011563 .00315439339 .00314821207 .00314180146 .00313539543 .00312922696 .00312355657 .00311858215 .00311432505 .00311073671 .00310772974
.00317092580 .00317247489 .00317374502 .00317467465 .00317530686 .00317582312 .00317566669 .00317418745 .00317117626 .00316683403 .00316150793 .00315550569 .00314907330 .00314243936 .00313586493 .00312961412 .00312390698 .00311888855 .00311459236 .00311097660 .00310795176
.00317113225 .00317272395 .00317408042 .00317515489 .00317593348 .00317640739 .00317636291 .00317506708 .00317190255 .00316732478 .00316179095 .00315564526 .00314911916 .00314240754 .00313579587 .00312958421 .00312394163 .00311897809 .00311472278 .00311113505 .00310812604
.00317077467 .00317232691 .00317367581 .00317477364 .00317556008 .00317585956 .00317579000 .00317439565 .00317107259 .00316638744 .00316080029 .00315469089 .00314827441 .00314166679 .00313519936 .00312917098 .00312368560 .00311886244 .00311472253 .00311121647 .00310825563
.00316987518 .00317129729 .00317252094 .00317348792 .00317412846 .00317438706 .00317394654 .00317203147 .00316865644 .00316404095 .00315856726 .00315267160 .00314653053 .00314028649 .00313419645 .00312844243 .00312318100 .00311857805 .00311461928 .00311123849 .00310835036
.00316849270 .00316970742 .00317070663 .00317142261 .00317176029 .00317159685 .00317062591 .00316844940 .00316505295 .00316057197 .00315540327 .00314990404 .00314420022 .00313844393 .00313281455 .00312741476 .00312248471 .00311818826 .00311445676 .00311122596 .00310842235
.00316671452 .00316767159 .00316838079 .00316876418 .00316871740 .00316807845 .00316665326 .00316424821 .00316084809 .00315660588 .00315186678 .00314681251 .00314158823 .00313632901 .00313117003 .00312624366 .00312175971 .00311778048 .00311427853 .00311119885 .00310847954
.00316464137 .00316532432 .00316572568 .00316576341 .00316533344 .00316430761 .00316256234 .00316001473 .00315668911 .00315273207 .00314836654 .00314374438 .00313898932 .00313421998 .00312955586 .00312512382 .00312105253 .00311738318 .00311409958 .00311116179 .00310852108
.00316237033 .00316279169 .00316290748 .00316264020 .00316190109 .00316059892 .00315866294 .00315606930 .00315286743 .00314917948 .00314515980 .00314093622 .00313661706 .00313230515 .00312810235 .00312410744 .00312039933 .00311700626 .00311391863 .00311110837 .00310853933
.00315998374 .00316017431 .00316004998 .00315954400 .00315858709 .00315711826 .00315510182 .00315254372 .00314950059 .00314607191 .00314237383 .00313851256 .00313458223 .00313067064 .00312686067 .00312322517 .00311981567 .00311665207 .00311372933 .00311102847 .00310852395
.00315754458 .00315754300 .00315723103 .00315655545 .00315546584 .00315392382 .00315191463 .00314945597 .00314660061 .00314342808 .00314002934 .00313649238 .00313289811 .00312932092 .00312582769 .00312247365 .00311929643 .00311631251 .00311352124 .00311091103 .00310846474
