# MODFLOW2005 multiplier Package Parent MD
         1
M1
         8         1(FREE)                       0
2.0109439E-4 2.0109024E-4 2.0108400E-4 2.0107516E-4 2.0106334E-4 2.0104875E-4 2.0103218E-4 2.0101376E-4 2.0099191E-4 2.0096373E-4 2.0092686E-4 2.0088099E-4 2.0082786E-4 2.0077044E-4 2.0071308E-4 2.0066075E-4 2.0061704E-4 2.0058238E-4 2.0055517E-4 2.0053336E-4 2.0051521E-4
2.0110330E-4 2.0109967E-4 2.0109352E-4 2.0108440E-4 2.0107198E-4 2.0105702E-4 2.0104203E-4 2.0102818E-4 2.0101322E-4 2.0099224E-4 2.0096053E-4 2.0091730E-4 2.0086389E-4 2.0080281E-4 2.0073852E-4 2.0067818E-4 2.0062848E-4 2.0059009E-4 2.0056061E-4 2.0053744E-4 2.0051850E-4
2.0110941E-4 2.0110539E-4 2.0109780E-4 2.0108638E-4 2.0107119E-4 2.0105367E-4 2.0103982E-4 2.0103215E-4 2.0102770E-4 2.0101936E-4 2.0099860E-4 2.0096474E-4 2.0091799E-4 2.0085853E-4 2.0078873E-4 2.0071728E-4 2.0065775E-4 2.0061160E-4 2.0057630E-4 2.0054898E-4 2.0052742E-4
2.0111230E-4 2.0110668E-4 2.0109574E-4 2.0107943E-4 2.0105916E-4 2.0103677E-4 2.0102432E-4 2.0102388E-4 2.0103137E-4 2.0103984E-4 2.0103512E-4 2.0101811E-4 2.0098640E-4 2.0093687E-4 2.0086705E-4 2.0078208E-4 2.0070861E-4 2.0064994E-4 2.0060459E-4 2.0056974E-4 2.0054304E-4
2.0111184E-4 2.0110352E-4 2.0108760E-4 2.0106412E-4 2.0103432E-4 2.0101039E-4 2.0100187E-4 2.0100878E-4 2.0102443E-4 2.0104509E-4 2.0106291E-4 2.0106832E-4 2.0105748E-4 2.0102564E-4 2.0096707E-4 2.0087658E-4 2.0078075E-4 2.0070534E-4 2.0064600E-4 2.0060017E-4 2.0056562E-4
2.0110888E-4 2.0109752E-4 2.0107675E-4 2.0104724E-4 2.0101457E-4 2.0099566E-4 2.0099068E-4 2.0100376E-4 2.0102322E-4 2.0104909E-4 2.0108306E-4 2.0110759E-4 2.0111496E-4 2.0109932E-4 2.0105170E-4 2.0096976E-4 2.0086531E-4 2.0077246E-4 2.0069711E-4 2.0063822E-4 2.0059364E-4
2.0110517E-4 2.0109233E-4 2.0107074E-4 2.0104344E-4 2.0101906E-4 2.0100937E-4 2.0101357E-4 2.0102322E-4 2.0103956E-4 2.0106673E-4 2.0110272E-4 2.0113405E-4 2.0114985E-4 2.0114345E-4 2.0110566E-4 2.0103213E-4 2.0093445E-4 2.0083611E-4 2.0074952E-4 2.0067877E-4 2.0062373E-4
2.0110220E-4 2.0109019E-4 2.0107200E-4 2.0105229E-4 2.0103971E-4 2.0104118E-4 2.0105229E-4 2.0105502E-4 2.0106468E-4 2.0108702E-4 2.0111853E-4 2.0114825E-4 2.0116534E-4 2.0116179E-4 2.0113150E-4 2.0107016E-4 2.0098365E-4 2.0088729E-4 2.0079518E-4 2.0071561E-4 2.0065134E-4
2.0110016E-4 2.0109055E-4 2.0107727E-4 2.0106505E-4 2.0106052E-4 2.0106576E-4 2.0107478E-4 2.0107756E-4 2.0108381E-4 2.0110067E-4 2.0112598E-4 2.0115125E-4 2.0116672E-4 2.0116442E-4 2.0113956E-4 2.0109069E-4 2.0101570E-4 2.0092328E-4 2.0082863E-4 2.0074316E-4 2.0067188E-4
2.0109832E-4 2.0109114E-4 2.0108168E-4 2.0107361E-4 2.0107059E-4 2.0107573E-4 2.0108291E-4 2.0108575E-4 2.0109070E-4 2.0110374E-4 2.0112425E-4 2.0114617E-4 2.0116116E-4 2.0116073E-4 2.0113923E-4 2.0109918E-4 2.0103331E-4 2.0094248E-4 2.0084612E-4 2.0075712E-4 2.0068161E-4
2.0109556E-4 2.0109000E-4 2.0108228E-4 2.0107477E-4 2.0107085E-4 2.0107503E-4 2.0108036E-4 2.0108288E-4 2.0108733E-4 2.0109838E-4 2.0111636E-4 2.0113775E-4 2.0115606E-4 2.0116208E-4 2.0114626E-4 2.0110430E-4 2.0103494E-4 2.0094322E-4 2.0084546E-4 2.0075500E-4 2.0067834E-4
2.0109137E-4 2.0108671E-4 2.0107962E-4 2.0107197E-4 2.0106742E-4 2.0106939E-4 2.0107319E-4 2.0107546E-4 2.0108013E-4 2.0109058E-4 2.0110770E-4 2.0113014E-4 2.0115419E-4 2.0116978E-4 2.0115892E-4 2.0110979E-4 2.0102784E-4 2.0092802E-4 2.0082701E-4 2.0073654E-4 2.0066161E-4
2.0108560E-4 2.0108158E-4 2.0107482E-4 2.0106681E-4 2.0106117E-4 2.0106334E-4 2.0106771E-4 2.0106991E-4 2.0107603E-4 2.0108702E-4 2.0110373E-4 2.0112664E-4 2.0115505E-4 2.0118066E-4 2.0117344E-4 2.0110990E-4 2.0100851E-4 2.0089626E-4 2.0079152E-4 2.0070303E-4 2.0063293E-4
2.0107818E-4 2.0107479E-4 2.0106855E-4 2.0106048E-4 2.0105431E-4 2.0105638E-4 2.0106169E-4 2.0106742E-4 2.0107678E-4 2.0108942E-4 2.0110654E-4 2.0112958E-4 2.0115766E-4 2.0119100E-4 2.0117916E-4 2.0109181E-4 2.0096754E-4 2.0084469E-4 2.0074018E-4 2.0065754E-4 2.0059538E-4
2.0106882E-4 2.0106615E-4 2.0106088E-4 2.0105348E-4 2.0104637E-4 2.0104683E-4 2.0105302E-4 2.0106290E-4 2.0107482E-4 2.0108908E-4 2.0110715E-4 2.0113212E-4 2.0116077E-4 2.0117864E-4 2.0114202E-4 2.0103601E-4 2.0089527E-4 2.0077288E-4 2.0067714E-4 2.0060534E-4 2.0055355E-4
2.0105702E-4 2.0105477E-4 2.0105068E-4 2.0104504E-4 2.0103860E-4 2.0103635E-4 2.0104027E-4 2.0104832E-4 2.0105879E-4 2.0107055E-4 2.0108606E-4 2.0110554E-4 2.0112068E-4 2.0111371E-4 2.0105705E-4 2.0093375E-4 2.0079576E-4 2.0069113E-4 2.0061193E-4 2.0055371E-4 2.0051275E-4
2.0104250E-4 2.0103994E-4 2.0103598E-4 2.0103085E-4 2.0102542E-4 2.0102025E-4 2.0101886E-4 2.0102082E-4 2.0102476E-4 2.0102984E-4 2.0103716E-4 2.0104214E-4 2.0103547E-4 2.0100238E-4 2.0092763E-4 2.0081408E-4 2.0070541E-4 2.0061918E-4 2.0055530E-4 2.0050932E-4 2.0047739E-4
2.0102553E-4 2.0102190E-4 2.0101698E-4 2.0101084E-4 2.0100363E-4 2.0099583E-4 2.0098901E-4 2.0098365E-4 2.0097915E-4 2.0097467E-4 2.0096885E-4 2.0095681E-4 2.0093082E-4 2.0088219E-4 2.0080683E-4 2.0071482E-4 2.0062982E-4 2.0056189E-4 2.0051128E-4 2.0047493E-4 2.0044947E-4
2.0100660E-4 2.0100145E-4 2.0099495E-4 2.0098690E-4 2.0097723E-4 2.0096610E-4 2.0095424E-4 2.0094195E-4 2.0092894E-4 2.0091423E-4 2.0089585E-4 2.0087002E-4 2.0083205E-4 2.0077857E-4 2.0071095E-4 2.0063813E-4 2.0057240E-4 2.0051954E-4 2.0047960E-4 2.0045033E-4 2.0042913E-4
2.0098650E-4 2.0097967E-4 2.0097132E-4 2.0096117E-4 2.0094901E-4 2.0093478E-4 2.0091868E-4 2.0090083E-4 2.0088095E-4 2.0085814E-4 2.0083080E-4 2.0079667E-4 2.0075368E-4 2.0070153E-4 2.0064317E-4 2.0058486E-4 2.0053317E-4 2.0049115E-4 2.0045861E-4 2.0043400E-4 2.0041532E-4
2.0096586E-4 2.0095737E-4 2.0094725E-4 2.0093520E-4 2.0092090E-4 2.0090428E-4 2.0088528E-4 2.0086385E-4 2.0083969E-4 2.0081217E-4 2.0078032E-4 2.0074305E-4 2.0069997E-4 2.0065187E-4 2.0060158E-4 2.0055316E-4 2.0051032E-4 2.0047476E-4 2.0044643E-4 2.0042421E-4 2.0040667E-4
