# MODFLOW2005 multiplier Package Parent MD
         1
M1
         8         1(FREE)                       0
1.0402390E-4 2.3511993E-5 3.2367762E-6 2.5526910E-7 1.2137749E-8 .45032932E-9 2.181713E-11 2.668347E-12 1.533728E-12 5.508806E-12 7.433362E-11 .91069369E-9 2.3777441E-9 .63119962E-9 2.031193E-11 1.847351E-13 1.196776E-15 9.398112E-18 1.120160E-19 2.212715E-21 7.433276E-23
6.9861625E-4 1.8891301E-4 2.8047315E-5 2.0523662E-6 7.5954821E-8 1.9215724E-9 6.588614E-11 6.869538E-12 4.847528E-12 4.146668E-11 2.7682628E-9 1.5313629E-7 8.3715892E-7 1.6461820E-7 1.5548258E-9 2.830375E-12 4.570188E-15 1.239845E-17 6.783247E-20 7.880305E-22 1.928967E-23
.00480142292 .00167492361 2.8850064E-4 2.1695057E-5 7.4750745E-7 1.7337410E-8 .71499491E-9 .11164202E-9 .12696624E-9 2.2769301E-9 7.4288813E-7 1.3525575E-4 .00118270522 1.5471939E-4 3.3571192E-7 7.718256E-11 2.270687E-14 1.620519E-17 3.321389E-20 2.043305E-22 3.609740E-24
.02750083111 .01264365117 .00257074014 2.0589852E-4 7.5723766E-6 2.2220672E-7 2.4574438E-8 1.4447083E-8 5.4261837E-8 1.4557179E-6 .00125564860 .17356128189 1.1915323889 .12552481552 8.6133504E-5 2.2054127E-9 1.063765E-13 1.600824E-17 1.088126E-20 3.449071E-23 4.606712E-25
.09973544861 .05490891526 .01177020918 9.2204250E-4 2.7160841E-5 1.9151010E-6 1.3705648E-6 6.7994896E-6 2.7984100E-4 .05856112168 1.9754365176 8.9251193198 15.980041150 2.7689470400 .00229862935 3.9503284E-8 1.974769E-13 6.748207E-18 1.737466E-21 3.274239E-24 3.824638E-26
.17973714405 .09591813094 .01690815106 .00103816269 4.3550646E-5 1.0993965E-5 2.9549951E-5 5.4298894E-4 .08832631910 8.8048115608 2.0544235106 .09309154549 .01325729721 .00716004433 1.8864546E-5 2.6894583E-9 2.256455E-14 5.125061E-19 9.198645E-23 1.530759E-25 2.054962E-27
.15148943172 .06688235701 .00947376255 5.7683802E-4 3.9560355E-5 1.2302726E-5 1.7469923E-5 2.4036353E-4 .00964631443 .02184508697 1.9681438E-4 1.4244428E-7 .26817611E-9 2.069448E-11 1.870055E-11 1.519155E-13 3.299296E-17 3.586973E-21 1.323502E-24 3.573957E-27 7.949277E-29
.06781556306 .02309602548 .00275906783 1.6971026E-4 1.2106749E-5 2.1683841E-6 1.2078335E-6 5.0239917E-6 1.2655699E-5 1.0819650E-6 1.1686336E-9 1.455134E-13 5.334811E-17 1.146142E-18 1.265763E-17 2.775897E-18 9.955187E-21 7.338080E-24 9.399249E-27 6.248586E-29 3.042527E-30
.02113531083 .00579127477 6.7788562E-4 5.0030007E-5 4.4156436E-6 7.3645695E-7 2.1714405E-7 1.3427477E-7 3.1156018E-8 .48923280E-9 4.825614E-13 1.901152E-16 4.244618E-19 4.647419E-20 1.014104E-19 7.892380E-21 2.500279E-23 3.526243E-26 1.133019E-28 1.797944E-30 1.949304E-31
.00646645350 .00172438022 2.7401509E-4 3.6274231E-5 7.8752464E-6 1.6880665E-6 2.7614671E-7 4.6964483E-8 3.3696851E-9 4.757725E-11 1.777207E-13 6.744487E-16 1.360872E-17 3.326775E-18 1.862202E-18 1.690209E-20 2.176836E-24 1.842493E-27 7.607902E-30 1.965105E-31 3.659661E-32
.00257567641 8.9007665E-4 3.0115030E-4 1.2406594E-4 6.7518921E-5 1.9554896E-5 3.1284435E-6 3.6424264E-7 2.4277702E-8 .74176683E-9 1.341464E-11 2.750044E-13 1.166151E-14 9.537025E-16 3.723897E-17 6.564491E-20 4.878662E-24 1.498451E-27 4.532386E-30 1.262122E-31 2.824516E-32
.00146217176 7.8530061E-4 6.8675982E-4 9.3601187E-4 .00118855693 6.2824052E-4 1.1083769E-4 1.3852695E-5 1.3761848E-6 1.0656946E-7 6.4757100E-9 .28263836E-9 6.737170E-12 5.409048E-14 9.907700E-17 3.855445E-20 6.350768E-24 3.256566E-27 1.255246E-29 3.964110E-31 8.799645E-32
.00112513562 9.4371139E-4 .00208103510 .00965809958 .03170323696 .01154537700 .00124944500 1.7510184E-4 2.2277159E-5 3.5481811E-6 5.3737182E-7 3.2860676E-8 .32152395E-9 2.484792E-13 2.846834E-17 6.357833E-21 4.147408E-24 9.380217E-27 9.006009E-29 4.117371E-30 8.694040E-31
.00110971957 .00124153523 .00529347267 .06998153976 .61948956669 .17683924291 .00726980537 3.3221195E-4 2.3254714E-5 4.0802794E-6 1.1351214E-6 7.2285394E-8 .32521422E-9 4.174504E-14 1.120571E-18 6.624460E-22 3.480091E-24 5.049852E-26 1.484594E-27 1.048187E-28 2.022358E-29
.00146903999 .00175713855 .00880706089 .19019548002 5.7594591003 4.6467098460 .13254430252 .00128715800 2.2423122E-5 1.2670896E-6 2.9944883E-7 7.4443539E-9 8.134906E-12 6.381509E-16 1.058380E-19 3.000051E-22 1.491136E-23 9.325538E-25 5.788615E-26 5.114939E-27 8.181283E-28
.00300327146 .00355926298 .01411420672 .19977647646 9.4422004897 39.165249033 3.1812927698 .04939717260 6.5261887E-4 1.4947344E-5 4.9578704E-7 2.0015992E-9 1.041368E-12 2.237214E-16 2.124300E-19 4.380751E-21 7.498600E-22 6.135461E-23 4.211329E-24 3.472691E-25 4.222959E-26
.00996548651 .01349591399 .04955132504 .51283436371 9.0122683785 77.930074200 48.405243949 4.5105464159 .18992061615 .00459064265 9.2251736E-6 7.6820383E-9 3.937371E-12 3.472720E-15 2.073137E-17 1.181880E-18 8.900915E-20 5.773505E-21 3.372144E-22 2.286755E-23 2.108771E-24
.04418534350 .07319943492 .26504453604 2.0661615186 24.252492332 196.68967143 356.88924464 120.86737394 9.6229923443 .14208250795 2.2720168E-4 1.5494747E-7 .13321466E-9 3.407376E-13 4.450515E-15 2.035134E-16 1.013600E-17 4.577104E-19 2.099634E-20 1.152901E-21 8.487478E-23
.20014908079 .38877198560 1.3595892685 8.3443289725 69.512818710 456.31935309 1126.0502048 649.58425415 69.260614625 1.1085543991 .00301593980 3.9845717E-6 7.3448908E-9 3.672881E-11 5.780222E-13 1.856328E-14 6.558474E-16 2.264723E-17 8.528382E-19 3.982865E-20 2.515554E-21
.76197574077 1.5906040499 5.0792346442 24.011974655 138.38473244 653.20106484 1456.1698100 927.82932734 120.42138678 2.8530596830 .01675984050 5.4232457E-5 2.1766101E-7 1.7371064E-9 2.860357E-11 7.238749E-13 2.054838E-14 6.145719E-16 2.103701E-17 9.100915E-19 5.327216E-20
2.2168587788 4.5716658304 12.606544993 44.244469526 167.92093062 509.03365264 816.51558449 461.09456356 69.392887487 2.6744482669 .03512046795 2.7445236E-4 2.2305792E-6 2.6275086E-8 .47035586E-9 1.112181E-11 3.004173E-13 9.004389E-15 3.158548E-16 1.390546E-17 8.097976E-19
