# MODFLOW2005 multiplier Package Parent MD
         1
M1
         8         1(FREE)                       0
.00137658545 .00137651924 .00137638640 .00137618194 .00137590239 .00137554670 .00137511686 .00137461780 .00137405699 .00137344392 .00137278918 .00137210353 .00137139811 .00137068438 .00136997362 .00136927576 .00136859803 .00136794410 .00136731498 .00136671008 .00136612798
.00137728265 .00137724100 .00137712808 .00137693734 .00137666380 .00137630523 .00137586331 .00137534291 .00137475174 .00137410022 .00137340041 .00137266401 .00137190353 .00137113274 .00137036573 .00136961562 .00136889245 .00136820057 .00136754062 .00136691139 .00136631056
.00137798988 .00137797948 .00137789368 .00137772434 .00137746488 .00137711161 .00137666611 .00137613227 .00137551651 .00137482918 .00137408416 .00137329330 .00137247075 .00137163322 .00137079818 .00136998272 .00136920230 .00136846264 .00136776448 .00136710613 .00136648421
.00137870202 .00137873018 .00137867940 .00137853977 .00137830342 .00137796488 .00137752648 .00137698936 .00137635688 .00137563707 .00137484671 .00137399684 .00137310441 .00137219016 .00137127588 .00137038111 .00136953058 .00136873226 .00136798787 .00136729522 .00136664961
.00137941145 .00137948575 .00137947813 .00137937655 .00137917090 .00137885879 .00137843919 .00137790913 .00137726896 .00137652282 .00137568330 .00137476871 .00137379800 .00137279652 .00137179455 .00137081170 .00136987590 .00136900857 .00136821039 .00136747868 .00136680695
.00138010758 .00138023552 .00138027935 .00138022475 .00138006095 .00137978579 .00137939255 .00137887557 .00137823124 .00137746113 .00137657257 .00137558988 .00137453457 .00137343330 .00137233053 .00137125442 .00137023032 .00136928635 .00136842896 .00136765500 .00136695566
.00138077621 .00138096473 .00138106853 .00138107148 .00138096059 .00138072772 .00138036558 .00137986383 .00137921390 .00137841504 .00137747797 .00137642675 .00137528712 .00137408320 .00137286568 .00137168610 .00137057325 .00136955361 .00136863714 .00136782103 .00136709432
.00138139854 .00138165194 .00138182111 .00138188808 .00138183631 .00138165031 .00138132535 .00138084266 .00138018586 .00137935341 .00137836036 .00137723384 .00137600452 .00137470574 .00137338182 .00137209532 .00137089167 .00136979950 .00136882808 .00136797306 .00136722112
.00138195101 .00138226809 .00138250111 .00138262991 .00138263827 .00138250299 .00138222993 .00138177536 .00138111079 .00138023762 .00137917909 .00137797011 .00137664940 .00137525807 .00137384305 .00137246001 .00137117181 .00137001517 .00136899641 .00136810803 .00136733441
.00138240756 .00138277963 .00138306620 .00138324443 .00138328854 .00138323083 .00138303974 .00138262224 .00138194576 .00138102281 .00137989075 .00137859618 .00137718719 .00137571266 .00137422271 .00137276143 .00137140145 .00137019478 .00136913863 .00136822376 .00136743283
.00138274495 .00138315750 .00138348173 .00138369359 .00138378964 .00138383334 .00138372367 .00138333619 .00138263732 .00138165532 .00138044642 .00137907011 .00137758137 .00137603325 .00137447966 .00137297432 .00137157724 .00137033429 .00136925125 .00136831788 .00136751495
.00138294794 .00138338743 .00138374369 .00138399918 .00138416193 .00138427528 .00138421752 .00138384697 .00138311603 .00138207085 .00138079171 .00137934982 .00137780215 .00137620151 .00137460795 .00137308223 .00137167525 .00137042093 .00136932778 .00136838708 .00136757913
.00138300764 .00138345877 .00138383686 .00138412767 .00138432552 .00138442579 .00138439205 .00138406598 .00138329990 .00138219990 .00138087212 .00137939614 .00137782571 .00137620609 .00137460282 .00137308480 .00137169144 .00137044871 .00136936413 .00136842922 .00136762437
.00138292092 .00138336324 .00138374020 .00138403704 .00138423729 .00138430124 .00138426707 .00138391869 .00138311538 .00138199010 .00138064950 .00137918091 .00137763442 .00137603761 .00137446636 .00137298932 .00137163119 .00137042006 .00136936155 .00136844515 .00136765129
.00138269304 .00138310432 .00138345230 .00138371997 .00138388937 .00138395135 .00138383678 .00138336861 .00138255376 .00138144474 .00138013032 .00137871020 .00137722599 .00137571140 .00137422564 .00137281096 .00137150393 .00137034318 .00136932629 .00136843888 .00136766210
.00138233866 .00138270009 .00138299595 .00138320763 .00138331137 .00138328093 .00138304831 .00138252322 .00138170549 .00138062889 .00137938476 .00137805524 .00137667082 .00137526744 .00137388690 .00137255348 .00137132265 .00137023257 .00136926841 .00136841618 .00136765967
.00138187951 .00138217868 .00138240659 .00138254282 .00138256186 .00138242596 .00138209263 .00138151897 .00138070370 .00137968381 .00137853886 .00137731204 .00137603805 .00137474901 .00137347680 .00137225250 .00137112469 .00137010838 .00136919807 .00136838182 .00136764603
.00138134068 .00138157319 .00138172828 .00138178492 .00138171761 .00138149615 .00138109296 .00138049033 .00137969541 .00137874324 .00137768600 .00137656001 .00137539515 .00137421982 .00137306241 .00137195278 .00137092110 .00136997752 .00136911905 .00136833717 .00136762125
.00138074645 .00138091481 .00138100153 .00138098693 .00138084908 .00138056619 .00138012210 .00137951214 .00137874875 .00137786116 .00137688602 .00137585409 .00137479165 .00137372352 .00137267409 .00137166687 .00137072069 .00136984276 .00136903154 .00136828121 .00136758396
.00138011748 .00138022861 .00138025694 .00138018553 .00137999710 .00137967676 .00137921609 .00137861684 .00137789279 .00137706778 .00137616966 .00137522411 .00137425406 .00137328083 .00137232447 .00137140257 .00137052775 .00136970528 .00136893466 .00136821210 .00136753224
.00137946977 .00137953253 .00137951422 .00137940127 .00137918095 .00137884364 .00137838562 .00137781111 .00137713275 .00137636964 .00137554368 .00137467620 .00137378695 .00137289410 .00137201396 .00137116011 .00137034194 .00136956396 .00136882664 .00136812788 .00136746423
