# MODFLOW2005 multiplier Package Parent MD
         1
M1
         8         1(FREE)                       0
.00378291779 .00400347156 .00419299536 .00433940572 .00442682303 .00443198315 .00439804670 .00440246715 .00444869159 .00452256370 .00459997948 .00466435998 .00471965041 .00477016907 .00479596432 .00478469318 .00471780187 .00458441129 .00440379751 .00419055286 .00395503553
.00401509390 .00425045266 .00445270691 .00460891002 .00470211446 .00470755256 .00467127629 .00467589357 .00472516484 .00480403920 .00488681203 .00495582542 .00501526042 .00506966156 .00509765655 .00508596337 .00501467298 .00487219149 .00467915055 .00445121396 .00419952934
.00423385599 .00448318702 .00469733574 .00486251543 .00496076138 .00496592397 .00492685090 .00493111693 .00498284621 .00506619958 .00515393836 .00522742440 .00529106581 .00534958754 .00538023059 .00536876971 .00529386445 .00514318166 .00493862956 .00469689345 .00442989866
.00443256867 .00469457442 .00491935325 .00509231293 .00519455380 .00519871608 .00515627715 .00515945044 .00521281012 .00529989415 .00539202867 .00546973433 .00553757903 .00560042072 .00563416048 .00562374189 .00554628070 .00538869142 .00517401573 .00491988498 .00463896976
.00460280449 .00487563068 .00510927480 .00528841611 .00539336119 .00539562736 .00534919763 .00535042316 .00540433056 .00549403269 .00558999087 .00567158278 .00574353540 .00581080596 .00584792778 .00583920733 .00576063388 .00559785463 .00537496688 .00511044514 .00481764520
.00474412018 .00502586107 .00526656061 .00545023380 .00555645882 .00555594316 .00550505445 .00550368241 .00555737565 .00564878959 .00574780259 .00583285228 .00590874913 .00598067183 .00602169578 .00601514832 .00593634469 .00577002296 .00554082617 .00526794085 .00496535681
.00485685286 .00514562088 .00539157835 .00557811608 .00568423306 .00568022075 .00562448411 .00562029262 .00567342734 .00576613677 .00586741578 .00595530631 .00603462809 .00611094738 .00615649692 .00615290770 .00607463037 .00590601002 .00567215517 .00539280379 .00508247624
.00494577939 .00524004895 .00548984642 .00567798986 .00578300534 .00577497023 .00571416208 .00570692187 .00575924086 .00585293793 .00595624916 .00604681402 .00612942953 .00620939474 .00625890285 .00625866634 .00618165198 .00601169999 .00577445138 .00549015586 .00517378455
.00502055325 .00531954853 .00557253258 .00576176968 .00586527843 .00585296629 .00578678751 .00577608762 .00582741546 .00592207486 .00602748772 .00612077062 .00620656586 .00628995458 .00634263619 .00634541014 .00626977945 .00609884252 .00585881340 .00557043365 .00524906064
.00508527401 .00538864310 .00564467275 .00583508588 .00593755162 .00592017218 .00584778122 .00583338383 .00588381631 .00597961924 .00608728018 .00618325839 .00627197079 .00635828768 .00641340886 .00641850062 .00634407574 .00617209469 .00592961657 .00563775246 .00531216731
.00513935231 .00544674322 .00570577404 .00589760538 .00599864087 .00597553879 .00589692753 .00587933889 .00592950249 .00602691064 .00613701068 .00623559268 .00632695088 .00641589368 .00647310455 .00647895644 .00640434598 .00623132431 .00598673443 .00569196895 .00536295183
.00517466717 .00548496392 .00574614174 .00593875320 .00603807065 .00601025367 .00592666785 .00590738693 .00595831480 .00605774470 .00617016193 .00627080006 .00636400585 .00645473896 .00651310868 .00651887549 .00644329377 .00626891328 .00602255734 .00572570250 .00539440288
.00520657372 .00551944719 .00578266150 .00597641346 .00607574403 .00604571419 .00595955314 .00594011107 .00599268467 .00609431870 .00620871245 .00631052649 .00640436342 .00649569786 .00655407743 .00655863757 .00648117956 .00630458621 .00605589430 .00575670719 .00542314560
.00525220612 .00556834687 .00583438199 .00603012213 .00613057400 .00610425968 .00602114205 .00600276253 .00605690610 .00616038961 .00627630647 .00637833249 .00647136494 .00656194298 .00661863424 .00662044341 .00653985559 .00635959436 .00610712082 .00580429651 .00546732040
.00531876711 .00563961351 .00591030695 .00611053838 .00621541752 .00619423491 .00611654791 .00610252785 .00615867944 .00626389957 .00638111587 .00648258617 .00657386609 .00666118281 .00671362188 .00671167049 .00662687145 .00644132871 .00618338805 .00587532923 .00553343471
.00540122702 .00572797468 .00600500181 .00621213525 .00632435631 .00631010563 .00623875788 .00622919314 .00628835096 .00639598223 .00651325689 .00661280898 .00670103428 .00678408375 .00683163873 .00682513160 .00673464396 .00654231602 .00627770523 .00596334924 .00561556015
.00543703444 .00576660123 .00604750497 .00625992193 .00637917862 .00637223794 .00630751381 .00630299246 .00636539232 .00647367897 .00658882432 .00668565235 .00677016185 .00684865203 .00689129080 .00687917544 .00678273687 .00658562050 .00631705919 .00599955798 .00564929453
.00537865595 .00570468650 .00598381476 .00619683776 .00631953683 .00631887774 .00626074737 .00626049467 .00632420798 .00643080807 .00654304824 .00663622079 .00671630842 .00678964828 .00682707634 .00681008925 .00671067223 .00651313811 .00624619097 .00593183296 .00558581098
.00523532461 .00555198750 .00582395537 .00603288094 .00615536237 .00615896667 .00610656591 .00610926138 .00617253257 .00627591670 .00638394191 .00647270794 .00654802594 .00661614106 .00664897672 .00662894183 .00652961109 .00633603239 .00607594624 .00577050878 .00543480096
.00502123731 .00532368411 .00558390029 .00578458374 .00590346242 .00590929772 .00586152276 .00586577829 .00592701569 .00602572284 .00612833602 .00621209358 .00628254910 .00634574261 .00637502412 .00635389037 .00625752053 .00607176841 .00582303150 .00553135298 .00521096972
.00475082187 .00503528034 .00528012272 .00546923622 .00558174079 .00558809623 .00554395940 .00554855979 .00560640172 .00569914607 .00579536454 .00587367331 .00593930696 .00599798896 .00602473507 .00600418559 .00591316048 .00573835832 .00550451974 .00523037683 .00492919797
