# MODFLOW2005 multiplier Package Parent MD
         1
M1
         8         1(FREE)                       0
.00315206724 .00315207060 .00315207320 .00315207492 .00315207559 .00315207539 .00315207465 .00315207274 .00315206936 .00315206501 .00315206009 .00315205483 .00315204928 .00315204353 .00315203772 .00315203207 .00315202666 .00315202167 .00315201700 .00315201257 .00315200839
.00315207147 .00315207485 .00315207747 .00315207920 .00315207990 .00315207969 .00315207893 .00315207700 .00315207361 .00315206926 .00315206429 .00315205899 .00315205343 .00315204765 .00315204182 .00315203613 .00315203067 .00315202569 .00315202099 .00315201654 .00315201234
.00315207582 .00315207923 .00315208186 .00315208363 .00315208429 .00315208410 .00315208334 .00315208140 .00315207799 .00315207360 .00315206863 .00315206329 .00315205771 .00315205186 .00315204603 .00315204028 .00315203483 .00315202980 .00315202507 .00315202062 .00315201638
.00315208029 .00315208373 .00315208637 .00315208813 .00315208883 .00315208863 .00315208788 .00315208593 .00315208250 .00315207810 .00315207311 .00315206774 .00315206210 .00315205623 .00315205035 .00315204457 .00315203908 .00315203399 .00315202927 .00315202478 .00315202055
.00315208486 .00315208831 .00315209101 .00315209278 .00315209348 .00315209329 .00315209254 .00315209059 .00315208715 .00315208272 .00315207768 .00315207229 .00315206660 .00315206071 .00315205479 .00315204895 .00315204343 .00315203832 .00315203355 .00315202907 .00315202480
.00315208947 .00315209296 .00315209568 .00315209748 .00315209821 .00315209802 .00315209724 .00315209530 .00315209182 .00315208741 .00315208232 .00315207690 .00315207118 .00315206524 .00315205926 .00315205341 .00315204785 .00315204271 .00315203788 .00315203339 .00315202911
.00315209407 .00315209759 .00315210033 .00315210216 .00315210288 .00315210270 .00315210197 .00315209999 .00315209652 .00315209204 .00315208696 .00315208148 .00315207573 .00315206975 .00315206373 .00315205783 .00315205222 .00315204704 .00315204222 .00315203767 .00315203339
.00315209851 .00315210208 .00315210486 .00315210671 .00315210745 .00315210728 .00315210653 .00315210455 .00315210108 .00315209657 .00315209145 .00315208594 .00315208016 .00315207412 .00315206806 .00315206212 .00315205647 .00315205127 .00315204640 .00315204183 .00315203752
.00315210267 .00315210627 .00315210909 .00315211095 .00315211171 .00315211154 .00315211081 .00315210886 .00315210534 .00315210081 .00315209565 .00315209010 .00315208427 .00315207820 .00315207212 .00315206614 .00315206045 .00315205521 .00315205032 .00315204573 .00315204139
.00315210627 .00315210991 .00315211276 .00315211463 .00315211540 .00315211527 .00315211454 .00315211258 .00315210907 .00315210449 .00315209930 .00315209372 .00315208785 .00315208174 .00315207561 .00315206961 .00315206388 .00315205863 .00315205371 .00315204910 .00315204476
.00315210923 .00315211289 .00315211575 .00315211766 .00315211843 .00315211831 .00315211762 .00315211565 .00315211211 .00315210752 .00315210231 .00315209668 .00315209079 .00315208463 .00315207849 .00315207244 .00315206671 .00315206142 .00315205649 .00315205188 .00315204753
.00315211148 .00315211518 .00315211805 .00315212000 .00315212080 .00315212069 .00315212001 .00315211803 .00315211448 .00315210988 .00315210460 .00315209897 .00315209303 .00315208687 .00315208069 .00315207463 .00315206888 .00315206359 .00315205867 .00315205403 .00315204967
.00315211247 .00315211618 .00315211906 .00315212101 .00315212183 .00315212173 .00315212102 .00315211908 .00315211552 .00315211088 .00315210563 .00315209994 .00315209400 .00315208783 .00315208163 .00315207557 .00315206984 .00315206453 .00315205959 .00315205498 .00315205061
.00315211208 .00315211579 .00315211867 .00315212065 .00315212147 .00315212134 .00315212067 .00315211871 .00315211514 .00315211050 .00315210522 .00315209955 .00315209362 .00315208745 .00315208126 .00315207520 .00315206948 .00315206419 .00315205925 .00315205463 .00315205026
.00315211036 .00315211404 .00315211695 .00315211888 .00315211972 .00315211964 .00315211893 .00315211696 .00315211336 .00315210874 .00315210344 .00315209781 .00315209188 .00315208574 .00315207958 .00315207356 .00315206784 .00315206256 .00315205765 .00315205303 .00315204866
.00315210725 .00315211090 .00315211375 .00315211570 .00315211653 .00315211641 .00315211570 .00315211369 .00315211011 .00315210552 .00315210026 .00315209466 .00315208876 .00315208265 .00315207654 .00315207051 .00315206484 .00315205958 .00315205470 .00315205011 .00315204576
.00315210335 .00315210697 .00315210981 .00315211170 .00315211252 .00315211239 .00315211164 .00315210966 .00315210609 .00315210151 .00315209629 .00315209072 .00315208487 .00315207882 .00315207275 .00315206678 .00315206112 .00315205591 .00315205105 .00315204647 .00315204214
.00315209914 .00315210272 .00315210554 .00315210741 .00315210819 .00315210803 .00315210728 .00315210529 .00315210177 .00315209720 .00315209202 .00315208651 .00315208071 .00315207469 .00315206866 .00315206275 .00315205714 .00315205195 .00315204712 .00315204257 .00315203823
.00315209487 .00315209841 .00315210117 .00315210302 .00315210377 .00315210361 .00315210286 .00315210087 .00315209735 .00315209284 .00315208775 .00315208223 .00315207648 .00315207050 .00315206452 .00315205867 .00315205307 .00315204794 .00315204312 .00315203858 .00315203428
.00315209062 .00315209412 .00315209684 .00315209867 .00315209940 .00315209924 .00315209849 .00315209651 .00315209302 .00315208854 .00315208347 .00315207802 .00315207230 .00315206638 .00315206044 .00315205460 .00315204906 .00315204396 .00315203917 .00315203464 .00315203037
.00315208643 .00315208990 .00315209261 .00315209442 .00315209514 .00315209496 .00315209422 .00315209224 .00315208879 .00315208434 .00315207930 .00315207389 .00315206823 .00315206236 .00315205644 .00315205066 .00315204513 .00315204006 .00315203530 .00315203077 .00315202653
