# MODFLOW2005 multiplier Package Parent MD
         1
M1
         8         1(FREE)                       0
.00327773026 .00327765190 .00327727913 .00327653916 .00327537243 .00327475472 .00327414003 .00326999746 .00326163465 .00325056411 .00323825416 .00322564207 .00321279300 .00319970019 .00318726713 .00317604506 .00316688090 .00316037745 .00315596368 .00315325998 .00315204326
.00327914103 .00327908442 .00327872968 .00327800234 .00327684109 .00327622339 .00327559976 .00327142473 .00326300170 .00325184920 .00323944382 .00322672784 .00321376904 .00320056415 .00318802426 .00317670721 .00316746765 .00316091108 .00315646322 .00315374122 .00315251896
.00328162121 .00328159818 .00328127453 .00328057407 .00327943387 .00327883318 .00327821867 .00327402650 .00326555290 .00325432133 .00324181796 .00322898965 .00321590693 .00320257074 .00318990127 .00317846401 .00316912582 .00316249635 .00315799851 .00315524636 .00315401055
.00328525493 .00328527877 .00328500075 .00328434307 .00328324162 .00328267756 .00328209412 .00327790392 .00326939236 .00325808523 .00324548100 .00323253049 .00321930848 .00320582103 .00319299949 .00318141508 .00317195286 .00316522852 .00316066293 .00315786707 .00315660812
.00329015477 .00329023946 .00329002209 .00328942307 .00328837590 .00328787258 .00328734530 .00328317793 .00327464359 .00326326911 .00325055414 .00323746872 .00322409086 .00321043164 .00319744000 .00318568925 .00317607243 .00316923057 .00316457890 .00316172515 .00316043256
.00329610906 .00329626806 .00329612602 .00329560162 .00329462936 .00329420816 .00329375460 .00328962255 .00328107039 .00326962997 .00325680144 .00324357210 .00323002474 .00321617038 .00320298387 .00319105496 .00318127443 .00317429769 .00316954556 .00316662266 .00316528768
.00330287567 .00330312171 .00330306988 .00330263796 .00330175981 .00330143242 .00330106426 .00329697062 .00328839529 .00327687789 .00326393526 .00325056032 .00323684243 .00322278622 .00320937846 .00319725023 .00318730094 .00318018613 .00317532877 .00317233151 .00317094891
.00331004875 .00331038992 .00331043779 .00331010899 .00330933488 .00330911053 .00330883923 .00330478868 .00329618547 .00328458146 .00327151247 .00325798144 .00324408466 .00322984019 .00321622525 .00320389043 .00319376654 .00318651486 .00318155415 .00317848284 .00317705126
.00331700492 .00331743953 .00331758514 .00331735716 .00331668772 .00331657212 .00331641790 .00331242325 .00330379104 .00329209161 .00327888538 .00326519148 .00325111659 .00323668949 .00322289407 .00321037067 .00320008285 .00319270658 .00318765240 .00318451323 .00318303549
.00332306137 .00332357432 .00332380023 .00332365249 .00332304881 .00332308163 .00332309080 .00331916987 .00331050837 .00329870765 .00328536092 .00327150882 .00325726966 .00324268213 .00322873753 .00321605842 .00320562850 .00319815136 .00319302001 .00318982364 .00318830580
.00332799491 .00332856402 .00332884613 .00332875514 .00332824301 .00332846048 .00332863326 .00332477598 .00331606993 .00330415761 .00329067075 .00327667215 .00326228759 .00324755976 .00323348893 .00322071587 .00321020453 .00320265043 .00319745990 .00319421968 .00319267020
.00333196481 .00333257472 .00333290820 .00333288978 .00333249386 .00333284567 .00333313120 .00332930366 .00332052905 .00330849794 .00329488227 .00328076397 .00326626906 .00325143690 .00323728034 .00322445421 .00321390713 .00320631757 .00320109677 .00319783230 .00319626347
.00333324083 .00333386568 .00333422879 .00333426010 .00333392189 .00333427761 .00333461560 .00333084216 .00332200340 .00330988202 .00329618583 .00328201195 .00326747914 .00325261209 .00323843488 .00322561658 .00321508567 .00320750963 .00320229848 .00319903946 .00319747178
.00333123052 .00333183486 .00333218872 .00333222454 .00333189167 .00333216715 .00333247035 .00332865855 .00331977024 .00330761834 .00329391332 .00327976771 .00326529082 .00325047724 .00323636991 .00322363576 .00321317769 .00320566587 .00320050681 .00319728556 .00319574191
.00332584547 .00332638891 .00332668379 .00332666103 .00332626385 .00332648638 .00332662389 .00332262116 .00331372467 .00330161510 .00328797674 .00327394216 .00325960355 .00324496700 .00323104470 .00321845438 .00320811734 .00320071818 .00319565102 .00319249724 .00319099844
.00331707333 .00331751938 .00331770891 .00331756868 .00331703152 .00331706719 .00331697849 .00331287213 .00330399117 .00329196478 .00327848525 .00326465079 .00325053334 .00323614430 .00322246072 .00321006556 .00319991058 .00319267405 .00318773205 .00318466856 .00318323013
.00330781076 .00330814597 .00330821179 .00330793090 .00330723107 .00330706727 .00330677796 .00330257563 .00329371293 .00328181340 .00326854300 .00325492577 .00324104425 .00322690660 .00321346634 .00320131370 .00319138577 .00318431647 .00317950075 .00317652769 .00317514866
.00330011473 .00330034667 .00330029693 .00329988601 .00329904012 .00329871456 .00329827709 .00329401264 .00328519476 .00327343465 .00326034233 .00324692597 .00323326472 .00321936307 .00320616130 .00319424504 .00318451685 .00317759859 .00317289336 .00316999685 .00316866559
.00329432984 .00329447628 .00329433224 .00329381809 .00329286151 .00329242078 .00329188715 .00328759610 .00327883743 .00326720534 .00325427315 .00324103599 .00322757055 .00321387771 .00320088610 .00318916983 .00317960788 .00317281397 .00316819731 .00316535946 .00316406189
.00329050270 .00329058509 .00329037266 .00328978688 .00328875818 .00328824760 .00328766371 .00328337742 .00327468864 .00326317603 .00325038821 .00323730848 .00322401078 .00321049249 .00319767217 .00318611321 .00317667961 .00316997937 .00316542670 .00316262834 .00316135029
.00328859563 .00328863480 .00328837902 .00328775162 .00328668594 .00328614506 .00328554949 .00328129467 .00327268555 .00326128706 .00324862947 .00323568587 .00322252733 .00320914828 .00319645940 .00318501628 .00317567383 .00316903682 .00316452405 .00316174693 .00316047562
