# MODFLOW2005 multiplier Package Parent MD
         1
M1
         8         1(FREE)                       0
.00601992076 .00554306718 .00494478068 .00424393387 .00348712124 .00274359141 .00207995082 .00153055569 .00109792189 7.6907271E-4 5.2700911E-4 3.5445397E-4 2.3487711E-4 1.5397367E-4 1.0050121E-4 6.6013834E-5 4.4193340E-5 3.0426455E-5 2.1618088E-5 1.5846092E-5 1.1957303E-5
.00692937282 .00647081664 .00583518062 .00503616994 .00413249758 .00322815104 .00243113678 .00178441920 .00127966305 8.9466505E-4 6.0955602E-4 4.0637304E-4 2.6594196E-4 1.7102105E-4 1.0845524E-4 6.8677212E-5 4.4304945E-5 2.9519471E-5 2.0420754E-5 1.4671753E-5 1.0921446E-5
.00787483431 .00745316994 .00677920795 .00586618489 .00479199964 .00370650281 .00278740416 .00206622131 .00150355410 .00106383878 7.2926445E-4 4.8848056E-4 3.2034861E-4 2.0455217E-4 1.2652274E-4 7.6579029E-5 4.6953901E-5 2.9802902E-5 1.9785069E-5 1.3782039E-5 1.0056896E-5
.00876745127 .00838768071 .00766394367 .00661813202 .00536538217 .00409728009 .00311319037 .00237330687 .00178295031 .00129623717 9.0559130E-4 6.2020530E-4 4.1495273E-4 2.6751706E-4 1.6317129E-4 9.3488139E-5 5.3493786E-5 3.1687389E-5 1.9833256E-5 1.3214915E-5 9.3729693E-6
.00949596806 .00913953001 .00833799732 .00713755529 .00567940685 .00434858528 .00342106224 .00273559713 .00214603390 .00161007342 .00116771796 8.3222171E-4 5.7457848E-4 3.7795453E-4 2.3165195E-4 1.2729600E-4 6.5753858E-5 3.5645678E-5 2.0661434E-5 1.2979969E-5 8.8598292E-6
.00997459406 .00962216342 .00873534688 .00739241358 .00587886446 .00470188182 .00386929492 .00326936073 .00266676929 .00207620849 .00158309044 .00117150443 8.2804713E-4 5.4748133E-4 3.3117192E-4 1.7673204E-4 8.5135806E-5 4.1853194E-5 2.2197434E-5 1.3009470E-5 8.4721049E-6
.01018345329 .00987356176 .00902784562 .00777439827 .00645131916 .00542970667 .00475491961 .00417960109 .00350846822 .00283444110 .00222654791 .00168009152 .00119253664 7.7810301E-4 4.5131272E-4 2.2970715E-4 1.0603641E-4 4.8665901E-5 2.3899621E-5 1.3095172E-5 8.1167513E-6
.01013251898 .00993358770 .00928253605 .00831851711 .00733111532 .00657779871 .00607629779 .00544409028 .00469830931 .00390118830 .00310924508 .00234250211 .00163113885 .00102393632 5.6418690E-4 2.7556029E-4 1.2304204E-4 5.3907658E-5 2.4984474E-5 1.2943157E-5 7.6744992E-6
.00981978242 .00976424482 .00937559348 .00876915058 .00815933129 .00766265192 .00731781007 .00680825606 .00606756028 .00514706303 .00411670685 .00305040909 .00204779545 .00122015848 6.4082402E-4 3.0310012E-4 1.3192749E-4 5.5822774E-5 2.4768187E-5 1.2294580E-5 7.0475166E-6
.00924101932 .00930014173 .00913269675 .00880902461 .00844115847 .00824192988 .00818733434 .00791927884 .00728161007 .00628663383 .00502918564 .00366009603 .00237358398 .00134989016 6.7431995E-4 3.0720963E-4 1.3110993E-4 5.3595919E-5 2.2945399E-5 1.1049912E-5 6.2086773E-6
.00842415580 .00853733127 .00850679834 .00835589434 .00817417862 .00826493203 .00849557364 .00847331738 .00798091499 .00699349542 .00561571332 .00405658993 .00258636587 .00143510453 6.9354503E-4 3.0003369E-4 1.2126692E-4 4.7660623E-5 1.9773653E-5 9.3406230E-6 5.2231678E-6
.00744202342 .00756097534 .00762788388 .00766408377 .00772374744 .00791541602 .00827398289 .00835988305 .00797256994 .00706714639 .00572737512 .00416230275 .00266247706 .00147519761 6.9947985E-4 2.8713528E-4 1.0767365E-4 3.9886604E-5 1.5984408E-5 7.4702721E-6 4.2187015E-6
.00639077651 .00648387541 .00661275840 .00681622886 .00711829156 .00745863174 .00768429007 .00768187042 .00731229976 .00651637759 .00534063135 .00393695699 .00255935626 .00144078569 6.7969995E-4 2.6385835E-4 9.0939732E-5 3.1514848E-5 1.2251111E-5 5.7362948E-6 3.3199351E-6
.00536150300 .00540696577 .00553978689 .00581093660 .00622421000 .00662026495 .00671799543 .00659055037 .00617851265 .00548794867 .00453634694 .00339521190 .00224830640 .00129755798 6.1377871E-4 2.2434189E-4 7.0871180E-5 2.3309194E-5 9.0081813E-6 4.3226804E-6 2.6025480E-6
.00442095364 .00440835549 .00448573969 .00469848041 .00504304002 .00528959817 .00530557005 .00512266340 .00473268317 .00417085999 .00345368246 .00260447541 .00175391929 .00102185406 4.7562709E-4 1.6648979E-4 4.9046922E-5 1.6119950E-5 6.5010927E-6 3.2938230E-6 2.0868361E-6
.00360455606 .00353898162 .00353487340 .00361353785 .00378361842 .00388660615 .00382321826 .00361430582 .00327418255 .00284542435 .00230877892 .00170513997 .00112912418 6.4661515E-4 2.9941989E-4 1.0197373E-4 3.0119308E-5 1.0870435E-5 4.8095213E-6 2.6267536E-6 1.7539486E-6
.00291965482 .00281789970 .00275007648 .00272146708 .00271644750 .00269425997 .00258226443 .00237517674 .00209028648 .00174811990 .00135590016 9.5950555E-4 6.0711497E-4 3.3164838E-4 1.4883534E-4 5.4257327E-5 1.9234065E-5 7.8119414E-6 3.8164135E-6 2.2444010E-6 1.5655013E-6
.00235549340 .00223333800 .00212585941 .00203259916 .00194394228 .00184067041 .00169500313 .00149992949 .00126520520 .00100638718 7.4195857E-4 4.9973190E-4 3.0225979E-4 1.6065785E-4 7.4062656E-5 3.0721314E-5 1.2890241E-5 6.0216463E-6 3.2592327E-6 2.0513031E-6 1.4797584E-6
.00189630196 .00176646548 .00164116000 .00151964197 .00139715209 .00126536811 .00111509895 9.4481172E-4 7.6165892E-4 5.7775715E-4 4.0730759E-4 2.6405834E-4 1.5596726E-4 8.3528649E-5 4.1032080E-5 1.9330562E-5 9.3915805E-6 4.9834956E-6 2.9629235E-6 1.9775417E-6 1.4638124E-6
.00152642312 .00139843937 .00127126364 .00114498203 .00101807086 8.8795810E-4 7.5267175E-4 6.1365435E-4 4.7642497E-4 3.4891054E-4 2.3903890E-4 1.5234598E-4 9.0201720E-5 4.9950599E-5 2.6420156E-5 1.3868668E-5 7.5648932E-6 4.4372068E-6 2.8401899E-6 1.9830419E-6 1.4958774E-6
.00123114422 .00111125826 9.9195446E-4 8.7391406E-4 7.5726062E-4 6.4194875E-4 5.2856446E-4 4.1925297E-4 3.1779432E-4 2.2861477E-4 1.5533131E-4 9.9537036E-5 6.0374408E-5 3.5053858E-5 1.9894780E-5 1.1364943E-5 6.7350026E-6 4.2312566E-6 2.8446103E-6 2.0452023E-6 1.5621117E-6
