# MODFLOW2005 multiplier Package Parent MD
         1
M1
         8         1(FREE)                       0
.00313979906 .00313899330 .00313799367 .00313678528 .00313535832 .00313371146 .00313185424 .00312980710 .00312759920 .00312526718 .00312285105 .00312039080 .00311792742 .00311550349 .00311316084 .00311093581 .00310885336 .00310692340 .00310514460 .00310350932 .00310200670
.00314160504 .00314087236 .00313993216 .00313876398 .00313735224 .00313569082 .00313378763 .00313166192 .00312934288 .00312687015 .00312428911 .00312164246 .00311897634 .00311634238 .00311379409 .00311138103 .00310914008 .00310708366 .00310520855 .00310350419 .00310195556
.00314348315 .00314285009 .00314199949 .00314090528 .00313954571 .00313790825 .00313599949 .00313383319 .00313143141 .00312883218 .00312608769 .00312324014 .00312034168 .00311745611 .00311465109 .00311199309 .00310954225 .00310731645 .00310531275 .00310351824 .00310191319
.00314541823 .00314491383 .00314418610 .00314320286 .00314193709 .00314036826 .00313850430 .00313634570 .00313389921 .00313119051 .00312828399 .00312521673 .00312205232 .00311887176 .00311576104 .00311279690 .00311007955 .00310763645 .00310546865 .00310356086 .00310188729
.00314738564 .00314704006 .00314646949 .00314563469 .00314449917 .00314305319 .00314128875 .00313918724 .00313673932 .00313395118 .00313086671 .00312755529 .00312408848 .00312056674 .00311711292 .00311380368 .00311075284 .00310804628 .00310568038 .00310363740 .00310188382
.00314934998 .00314919263 .00314881409 .00314816744 .00314721327 .00314594010 .00314431265 .00314229855 .00313986690 .00313701146 .00313375105 .00313018136 .00312638468 .00312246641 .00311861134 .00311493331 .00311153440 .00310852976 .00310594061 .00310374707 .00310190531
.00315126249 .00315132013 .00315116858 .00315075600 .00315003374 .00314896299 .00314749987 .00314558315 .00314316146 .00314021793 .00313678540 .00313295658 .00312883165 .00312450390 .00312018528 .00311609223 .00311234158 .00310904112 .00310622729 .00310388161 .00310195067
.00315305765 .00315334585 .00315344271 .00315329213 .00315283093 .00315198674 .00315071672 .00314891504 .00314649831 .00314344602 .00313980892 .00313569145 .00313121417 .00312651054 .00312176367 .00311723839 .00311312473 .00310953969 .00310651669 .00310403034 .00310201692
.00315465311 .00315516500 .00315550242 .00315560440 .00315540942 .00315480940 .00315379273 .00315214636 .00314973162 .00314653955 .00314265577 .00313821727 .00313337881 .00312830749 .00312319744 .00311828294 .00311383061 .00310999330 .00310679121 .00310418529 .00310210158
.00315595951 .00315665849 .00315719197 .00315749355 .00315746685 .00315721960 .00315657912 .00315512325 .00315269028 .00314931714 .00314514955 .00314037398 .00313518537 .00312978420 .00312437856 .00311915158 .00311441299 .00311038282 .00310704127 .00310434180 .00310220309
.00315690170 .00315772964 .00315839207 .00315882385 .00315902430 .00315922557 .00315896180 .00315766237 .00315515974 .00315156053 .00314709066 .00314199096 .00313648518 .00313079172 .00312513520 .00311974108 .00311486373 .00311069619 .00310725659 .00310449397 .00310231896
.00315743790 .00315834482 .00315911199 .00315970507 .00316018012 .00316070196 .00316069530 .00315948192 .00315685545 .00315300507 .00314825592 .00314289682 .00313715893 .00313125912 .00312544926 .00311998606 .00311508365 .00311088248 .00310741289 .00310463083 .00310244505
.00315755012 .00315848509 .00315932160 .00316003989 .00316064566 .00316115095 .00316126292 .00316020835 .00315743431 .00315336287 .00314842072 .00314293154 .00313711180 .00313114482 .00312530680 .00311989067 .00311505966 .00311091919 .00310749542 .00310474557 .00310257911
.00315723577 .00315813127 .00315895689 .00315969386 .00316030402 .00316061634 .00316066625 .00315951404 .00315659246 .00315242068 .00314742955 .00314198028 .00313627353 .00313041333 .00312472190 .00311949099 .00311481862 .00311081948 .00310751153 .00310484342 .00310272490
.00315651469 .00315729361 .00315800116 .00315860743 .00315905981 .00315928128 .00315894189 .00315729027 .00315431328 .00315020333 .00314531701 .00314007464 .00313463744 .00312913567 .00312381685 .00311885586 .00311440325 .00311062000 .00310748893 .00310494197 .00310289227
.00315543559 .00315603104 .00315652784 .00315688255 .00315701783 .00315680301 .00315592785 .00315400129 .00315098592 .00314699007 .00314239074 .00313752932 .00313251526 .00312748822 .00312261819 .00311800077 .00311386933 .00311038301 .00310747040 .00310506530 .00310309255
.00315407048 .00315444009 .00315466814 .00315469761 .00315443922 .00315374158 .00315240370 .00315022767 .00314718166 .00314339756 .00313920361 .00313476354 .00313020716 .00312565722 .00312123923 .00311707806 .00311337689 .00311019354 .00310749755 .00310523169 .00310333228
.00315250237 .00315263430 .00315258159 .00315228067 .00315164268 .00315054973 .00314887704 .00314653483 .00314353400 .00314000467 .00313615342 .00313211564 .00312800039 .00312391428 .00311996703 .00311627775 .00311296887 .00311007702 .00310758269 .00310544351 .00310360867
.00315081101 .00315071943 .00315041139 .00314982547 .00314888661 .00314751282 .00314563465 .00314322297 .00314031648 .00313702371 .00313348426 .00312981122 .00312609937 .00312243997 .00311892549 .00311564693 .00311267711 .00311003968 .00310772140 .00310569152 .00310391160
.00314906315 .00314877856 .00314826175 .00314745955 .00314631436 .00314477326 .00314280279 .00314040535 .00313762940 .00313456310 .00313130998 .00312796323 .00312460491 .00312131213 .00311815875 .00311521024 .00311251203 .00311007940 .00310790343 .00310596228 .00310422792
.00314730893 .00314686839 .00314619505 .00314524681 .00314398284 .00314237124 .00314039954 .00313808322 .00313546881 .00313262688 .00312963787 .00312657884 .00312352009 .00312052634 .00311765624 .00311495781 .00311246293 .00311018323 .00310811425 .00310624117 .00310454427
