# MODFLOW2005 multiplier Package Parent MD
         1
M1
         8         1(FREE)                       0
.00385385454 .00325303071 .00263210216 .00203173549 .00149711705 .00106340449 7.4106523E-4 5.1319577E-4 3.5319610E-4 2.3999615E-4 1.6114273E-4 1.0861332E-4 7.4916732E-5 5.3701696E-5 4.0568606E-5 3.2707500E-5 2.8126958E-5 2.5239431E-5 2.3073969E-5 2.1186569E-5 1.9431736E-5
.00446519796 .00376751139 .00301299489 .00226755737 .00160833545 .00109476846 7.4099240E-4 5.0922600E-4 3.5296872E-4 2.4214004E-4 1.6361685E-4 1.1169025E-4 7.8571350E-5 5.7246934E-5 4.3455332E-5 3.5027695E-5 3.0339597E-5 2.7324063E-5 2.4844023E-5 2.2547495E-5 2.0402987E-5
.00513017850 .00430822320 .00336772857 .00242624123 .00161707610 .00102986278 6.7334473E-4 4.6451816E-4 3.3063583E-4 2.3455411E-4 1.6398318E-4 1.1895534E-4 9.0590000E-5 7.0761368E-5 5.5487226E-5 4.4404492E-5 3.8064770E-5 3.3298044E-5 2.9088816E-5 2.5385336E-5 2.2248677E-5
.00580788916 .00482885862 .00365085187 .00247391105 .00151286442 8.8110099E-4 5.6102097E-4 3.9552404E-4 2.9199639E-4 2.1662118E-4 1.5941699E-4 1.2946231E-4 1.1357441E-4 1.0136061E-4 8.6486104E-5 6.8691883E-5 5.6825597E-5 4.5906450E-5 3.6985182E-5 3.0152929E-5 2.5112777E-5
.00645035437 .00528214965 .00383371014 .00242258040 .00131987542 7.1776860E-4 4.6093490E-4 3.3750815E-4 2.5394914E-4 1.8664971E-4 1.5098306E-4 1.4267051E-4 1.4775962E-4 1.5613019E-4 1.5471639E-4 1.3456281E-4 9.6231314E-5 6.8396264E-5 4.9535525E-5 3.7089131E-5 2.8979837E-5
.00704546496 .00568671374 .00397197810 .00235414812 .00122529839 6.7445536E-4 4.3825347E-4 3.3148892E-4 2.4465067E-4 1.8085112E-4 1.5811159E-4 1.6180649E-4 1.8415179E-4 2.1754574E-4 2.3536275E-4 2.1759308E-4 1.5219823E-4 9.9545728E-5 6.6028042E-5 4.5699399E-5 3.3481432E-5
.00764774086 .00619545787 .00432805460 .00258715943 .00140522968 8.0789960E-4 5.6411389E-4 4.2225636E-4 2.9767910E-4 2.2004708E-4 1.8927562E-4 1.8913038E-4 2.0896917E-4 2.4095163E-4 2.7146640E-4 2.5763443E-4 1.9348719E-4 1.2818907E-4 8.2402305E-5 5.4259972E-5 3.7752133E-5
.00828988077 .00691737039 .00505493244 .00323514501 .00192332532 .00120076139 8.6537313E-4 6.1126587E-4 4.2533070E-4 3.1138295E-4 2.5563991E-4 2.3637315E-4 2.3850521E-4 2.5363680E-4 2.7686204E-4 2.6615863E-4 2.1167557E-4 1.4604439E-4 9.4120028E-5 6.0492295E-5 4.0653286E-5
.00886581491 .00773125916 .00602635834 .00417952823 .00268114149 .00173133655 .00126957835 9.3547555E-4 6.7369079E-4 4.9545609E-4 3.8975078E-4 3.3274235E-4 3.0508243E-4 2.9495724E-4 2.9128765E-4 2.7111028E-4 2.1925355E-4 1.5430956E-4 9.9426394E-5 6.2839825E-5 4.1300128E-5
.00913553612 .00826523240 .00678067171 .00498055964 .00322231231 .00225336125 .00186385062 .00152083365 .00117001366 8.7700402E-4 6.6997036E-4 5.3540039E-4 4.4873881E-4 3.8833736E-4 3.3741448E-4 2.8786532E-4 2.2965553E-4 1.5783390E-4 9.9087970E-5 6.1088078E-5 3.9495452E-5
.00891944238 .00821018675 .00689101509 .00518114713 .00363693231 .00305917805 .00293314900 .00266972327 .00219351614 .00168152367 .00126331541 9.6432232E-4 7.5620067E-4 5.9904475E-4 4.6563742E-4 3.5068383E-4 2.5091660E-4 1.6027686E-4 9.4885099E-5 5.6198718E-5 3.5794387E-5
.00829287123 .00772534872 .00674373434 .00553841358 .00458197849 .00446696588 .00487180854 .00480352517 .00414543006 .00325374780 .00244126459 .00182506773 .00138616485 .00104771794 7.4551758E-4 4.9102314E-4 2.9761343E-4 1.6566983E-4 8.8867323E-5 4.9703201E-5 3.1178291E-5
.00746253771 .00706816371 .00656546948 .00611047470 .00597457628 .00651338793 .00750383021 .00777439840 .00698474763 .00569858563 .00438355774 .00329814255 .00249903493 .00188456110 .00126995690 7.2959124E-4 3.6565399E-4 1.7114978E-4 8.1417503E-5 4.2799445E-5 2.6556500E-5
.00659577477 .00635304051 .00626546132 .00651963558 .00728365565 .00828063336 .00934872049 .00993584752 .00934414215 .00814867397 .00666884832 .00520878078 .00399687330 .00305940398 .00206268442 .00104611308 4.2726466E-4 1.6761127E-4 7.1770765E-5 3.6186995E-5 2.2520522E-5
.00578645339 .00562549914 .00573323409 .00631780362 .00754975197 .00881812542 .00966942077 .00997864457 .00971599494 .00906986949 .00805433260 .00670045538 .00537724081 .00413029149 .00272057751 .00127495359 4.2260377E-4 1.4620195E-4 6.0039509E-5 3.0394830E-5 1.9367291E-5
.00507724196 .00494199850 .00505153280 .00554646363 .00663818854 .00776513058 .00838357100 .00856480929 .00839432594 .00806032411 .00741436230 .00630067761 .00507634699 .00380942892 .00243411849 .00108743753 3.1384182E-4 1.1180974E-4 4.8488955E-5 2.5905652E-5 1.7174319E-5
.00446999484 .00434196009 .00439800960 .00470840634 .00528847981 .00599068720 .00643222126 .00654693052 .00639824727 .00601673592 .00525532927 .00429030748 .00325637391 .00222108901 .00125052893 5.2785027E-4 2.0117069E-4 8.2241709E-5 3.9571438E-5 2.2846967E-5 1.5825854E-5
.00393782440 .00380337540 .00378574834 .00390751236 .00415308891 .00443812414 .00459613324 .00454255418 .00427096229 .00378417211 .00310293348 .00236220766 .00165699300 .00104101662 5.6258222E-4 2.6349359E-4 1.2198290E-4 5.9923797E-5 3.2974702E-5 2.0814923E-5 1.5077185E-5
.00345801366 .00330878840 .00322333112 .00320457634 .00323204103 .00325381348 .00319338911 .00299950663 .00266348714 .00221041351 .00169979044 .00121390159 8.0400839E-4 4.8952057E-4 2.7347045E-4 1.4525699E-4 7.8898062E-5 4.5423684E-5 2.8379190E-5 1.9499574E-5 1.4731430E-5
.00302213903 .00285816549 .00272435466 .00261746224 .00252136169 .00240645243 .00223717181 .00199172194 .00167477784 .00131710871 9.6562927E-4 6.6325889E-4 4.2976594E-4 2.6466075E-4 1.5739596E-4 9.3399273E-5 5.7420549E-5 3.7197163E-5 2.5595068E-5 1.8787781E-5 1.4688835E-5
.00263020738 .00245725701 .00229721530 .00214600393 .00199331374 .00182400782 .00162350043 .00138671306 .00112383581 8.5834198E-4 6.1780187E-4 4.2203498E-4 2.7673156E-4 1.7665889E-4 1.1188209E-4 7.1950057E-5 4.7929902E-5 3.3367728E-5 2.4345226E-5 1.8622930E-5 1.4903868E-5
