# MODFLOW2005 multiplier Package Parent MD
         1
M1
         8         1(FREE)                       0
.00335400685 .00305165295 .00271756022 .00236343202 .00200572720 .00166336955 .00135329112 .00108532392 8.6164536E-4 6.7951755E-4 5.3419702E-4 4.2044929E-4 3.3284045E-4 2.6622440E-4 2.1617002E-4 1.7898277E-4 1.5144498E-4 1.3074432E-4 1.1479695E-4 1.0222450E-4 9.2129736E-5
.00377190537 .00345034601 .00307966261 .00267433203 .00225712708 .00185580904 .00149606312 .00119032501 9.3892851E-4 7.3614291E-4 5.7502267E-4 4.4940003E-4 3.5281859E-4 2.7922853E-4 2.2376349E-4 1.8272652E-4 1.5283507E-4 1.3067046E-4 1.1377698E-4 1.0062972E-4 9.0244560E-5
.00424548726 .00390735607 .00349414815 .00302564824 .00253533295 .00206410209 .00165172617 .00131005010 .00103412615 8.1325654E-4 6.3707354E-4 4.9928080E-4 3.9223653E-4 3.0896967E-4 2.4444200E-4 1.9567428E-4 1.6048490E-4 1.3460598E-4 1.1520155E-4 1.0050990E-4 8.9305267E-5
.00476647301 .00441507054 .00395219114 .00340602483 .00282809843 .00227740558 .00181618152 .00144466200 .00114969172 9.1558455E-4 7.2648640E-4 5.7753328E-4 4.5876241E-4 3.6269580E-4 2.8448360E-4 2.2186820E-4 1.7666774E-4 1.4356563E-4 1.1949990E-4 1.0204688E-4 8.9384010E-5
.00531630017 .00495443865 .00443342462 .00379459236 .00310685201 .00248761925 .00199299855 .00159965441 .00129079633 .00104586474 8.5139035E-4 6.9359665E-4 5.6084994E-4 4.4754056E-4 3.5094147E-4 2.6849609E-4 2.0340639E-4 1.5811528E-4 1.2678255E-4 1.0523336E-4 9.0443526E-5
.00586785191 .00549981513 .00491501860 .00417398411 .00339625564 .00273071311 .00220436184 .00179322623 .00147811159 .00122957231 .00103208656 8.6118794E-4 7.0621197E-4 5.6456619E-4 4.3842889E-4 3.2888011E-4 2.3941459E-4 1.7749367E-4 1.3654290E-4 1.0976148E-4 9.2290290E-5
.00639028386 .00603257288 .00540426754 .00458970092 .00374702581 .00302560970 .00246620418 .00205610727 .00175196215 .00150673576 .00129528449 .00109640865 9.0172569E-4 7.1325258E-4 5.3988621E-4 3.9234327E-4 2.7775829E-4 1.9868367E-4 1.4741452E-4 1.1495737E-4 9.4558002E-5
.00684391273 .00652378714 .00588986589 .00503759918 .00414469469 .00337697806 .00281695775 .00243977833 .00215735725 .00190983737 .00166624600 .00141226529 .00114898010 8.8941887E-4 6.5249540E-4 4.5857535E-4 3.1552476E-4 2.1920149E-4 1.5792304E-4 1.2000414E-4 9.6786513E-5
.00717301133 .00691429629 .00631665016 .00546999264 .00456384705 .00379345055 .00330622713 .00299811045 .00274545813 .00247652132 .00216498667 .00181344632 .00144327682 .00108568643 7.7214483E-4 5.2519720E-4 3.5089734E-4 2.3739923E-4 1.6689932E-4 1.2416429E-4 9.8529310E-5
.00731402871 .00711865106 .00658520399 .00579340951 .00488908131 .00424767061 .00396520831 .00378614839 .00356053673 .00322678462 .00278812494 .00228365706 .00176667684 .00128941005 8.9090822E-4 5.8841867E-4 3.8141286E-4 2.5187903E-4 1.7342775E-4 1.2684523E-4 9.9417412E-5
.00722888555 .00707796271 .00661374287 .00590775460 .00518233785 .00486014797 .00485815660 .00482691033 .00458289152 .00410669649 .00346824307 .00276179121 .00207391139 .00147007185 9.8806541E-4 6.3719464E-4 4.0401837E-4 2.6106467E-4 1.7663135E-4 1.2755909E-4 9.9178189E-5
.00693556523 .00682674578 .00648439256 .00598986937 .00557532952 .00558894396 .00588829415 .00595425767 .00560022276 .00490388031 .00403201228 .00312768101 .00229241549 .00158901849 .00104574598 6.6144830E-4 4.1243932E-4 2.6240727E-4 1.7551091E-4 1.2591670E-4 9.7660063E-5
.00648292991 .00641612137 .00622430625 .00598489879 .00585726112 .00608037144 .00653481655 .00664960571 .00613374226 .00524909896 .00423171927 .00323223365 .00234141548 .00160770992 .00104777417 6.5474257E-4 4.0310184E-4 2.5418060E-4 1.6949745E-4 1.2182316E-4 9.4906403E-5
.00592199058 .00587605553 .00579445920 .00574617421 .00582400844 .00602412327 .00634619751 .00634920521 .00576373845 .00488251273 .00391689019 .00298958512 .00217237555 .00150035276 9.8218813E-4 6.1233196E-4 3.7427310E-4 2.3615178E-4 1.5891924E-4 1.1566970E-4 9.1215008E-5
.00530230488 .00524317144 .00518954422 .00518809321 .00528041801 .00543784870 .00552445381 .00525566834 .00470120667 .00397340126 .00320185366 .00246367723 .00181237604 .00127226154 8.4719539E-4 5.3399562E-4 3.2701161E-4 2.1024358E-4 1.4525282E-4 1.0836384E-4 8.7108439E-5
.00467284195 .00457730357 .00449119433 .00443700504 .00442849690 .00441555569 .00429084731 .00396829769 .00349382487 .00294050995 .00237296613 .00183684461 .00136585139 9.7412881E-4 6.6298844E-4 4.2577895E-4 2.6884934E-4 1.8154141E-4 1.3101384E-4 1.0110766E-4 8.3188344E-5
.00407442588 .00393905924 .00380409116 .00367694316 .00355325222 .00340557199 .00318312220 .00286552545 .00248039186 .00206767607 .00165887549 .00128454442 9.6018142E-4 6.9146749E-4 4.7824106E-4 3.1994512E-4 2.1877419E-4 1.5672472E-4 1.1865283E-4 9.4904224E-5 7.9924594E-5
.00353279314 .00336660137 .00319205846 .00301094511 .00281887653 .00260370003 .00235053522 .00205940331 .00174765453 .00143678247 .00114465998 8.8557283E-4 6.6613090E-4 4.8760887E-4 3.4885339E-4 2.4810128E-4 1.8118425E-4 1.3758447E-4 1.0904890E-4 9.0167909E-5 7.7533309E-5
.00305937753 .00287561152 .00267945423 .00247224810 .00225322053 .00202021749 .00177281232 .00151697722 .00126430800 .00102685737 8.1388602E-4 6.3114306E-4 4.8030292E-4 3.6024712E-4 2.6852718E-4 2.0191491E-4 1.5580175E-4 1.2417423E-4 1.0228558E-4 8.6946088E-5 7.6046794E-5
.00265536201 .00246640343 .00226535569 .00205448098 .00183586916 .00161209489 .00138734588 .00116819924 9.6246702E-4 7.7693266E-4 6.1597247E-4 4.8131793E-4 3.7234122E-4 2.8688266E-4 2.2202031E-4 1.7440144E-4 1.4027446E-4 1.1584940E-4 9.8155155E-5 8.5139085E-5 7.5408951E-5
.00231578617 .00213089613 .00193681849 .00173647045 .00153318221 .00133091437 .00113443484 9.4910643E-4 7.8002527E-4 6.3097339E-4 5.0386381E-4 3.9877484E-4 3.1432963E-4 2.4824523E-4 1.9780048E-4 1.6010644E-4 1.3227729E-4 1.1168860E-4 9.6276552E-5 8.4563086E-5 7.5518923E-5
