# MODFLOW2005 multiplier Package Parent MD
         1
M1
         8         1(FREE)                       0
2.0006010E-4 2.0006010E-4 2.0006010E-4 2.0006010E-4 2.0006010E-4 2.0006010E-4 2.0006010E-4 2.0006010E-4 2.0006010E-4 2.0006010E-4 2.0006010E-4 2.0006010E-4 2.0006010E-4 2.0006010E-4 2.0006010E-4 2.0006010E-4 2.0006010E-4 2.0006010E-4 2.0006010E-4 2.0006010E-4 2.0006010E-4
2.0006010E-4 2.0006010E-4 2.0006010E-4 2.0006010E-4 2.0006010E-4 2.0006010E-4 2.0006010E-4 2.0006010E-4 2.0006010E-4 2.0006010E-4 2.0006010E-4 2.0006010E-4 2.0006010E-4 2.0006010E-4 2.0006010E-4 2.0006010E-4 2.0006010E-4 2.0006010E-4 2.0006010E-4 2.0006010E-4 2.0006010E-4
2.0006010E-4 2.0006010E-4 2.0006010E-4 2.0006010E-4 2.0006010E-4 2.0006010E-4 2.0006010E-4 2.0006010E-4 2.0006010E-4 2.0006010E-4 2.0006010E-4 2.0006010E-4 2.0006010E-4 2.0006010E-4 2.0006010E-4 2.0006010E-4 2.0006010E-4 2.0006010E-4 2.0006010E-4 2.0006010E-4 2.0006010E-4
2.0006010E-4 2.0006010E-4 2.0006010E-4 2.0006010E-4 2.0006010E-4 2.0006010E-4 2.0006010E-4 2.0006010E-4 2.0006010E-4 2.0006010E-4 2.0006010E-4 2.0006010E-4 2.0006010E-4 2.0006010E-4 2.0006010E-4 2.0006010E-4 2.0006010E-4 2.0006010E-4 2.0006010E-4 2.0006010E-4 2.0006010E-4
2.0006010E-4 2.0006010E-4 2.0006010E-4 2.0006010E-4 2.0006010E-4 2.0006010E-4 2.0006010E-4 2.0006010E-4 2.0006010E-4 2.0006010E-4 2.0006010E-4 2.0006010E-4 2.0006010E-4 2.0006010E-4 2.0006010E-4 2.0006010E-4 2.0006010E-4 2.0006010E-4 2.0006010E-4 2.0006010E-4 2.0006010E-4
2.0006010E-4 2.0006010E-4 2.0006010E-4 2.0006010E-4 2.0006010E-4 2.0006010E-4 2.0006010E-4 2.0006010E-4 2.0006010E-4 2.0006010E-4 2.0006010E-4 2.0006010E-4 2.0006010E-4 2.0006010E-4 2.0006010E-4 2.0006010E-4 2.0006010E-4 2.0006010E-4 2.0006010E-4 2.0006010E-4 2.0006010E-4
2.0006010E-4 2.0006010E-4 2.0006010E-4 2.0006010E-4 2.0006010E-4 2.0006010E-4 2.0006010E-4 2.0006010E-4 2.0006010E-4 2.0006010E-4 2.0006010E-4 2.0006010E-4 2.0006010E-4 2.0006010E-4 2.0006010E-4 2.0006010E-4 2.0006010E-4 2.0006010E-4 2.0006010E-4 2.0006010E-4 2.0006010E-4
2.0006010E-4 2.0006010E-4 2.0006010E-4 2.0006010E-4 2.0006010E-4 2.0006010E-4 2.0006010E-4 2.0006010E-4 2.0006010E-4 2.0006010E-4 2.0006010E-4 2.0006010E-4 2.0006010E-4 2.0006010E-4 2.0006010E-4 2.0006010E-4 2.0006010E-4 2.0006010E-4 2.0006010E-4 2.0006010E-4 2.0006010E-4
2.0006010E-4 2.0006010E-4 2.0006010E-4 2.0006010E-4 2.0006010E-4 2.0006010E-4 2.0006010E-4 2.0006010E-4 2.0006010E-4 2.0006010E-4 2.0006010E-4 2.0006010E-4 2.0006010E-4 2.0006010E-4 2.0006010E-4 2.0006010E-4 2.0006010E-4 2.0006010E-4 2.0006010E-4 2.0006010E-4 2.0006010E-4
2.0006010E-4 2.0006010E-4 2.0006010E-4 2.0006010E-4 2.0006010E-4 2.0006010E-4 2.0006010E-4 2.0006010E-4 2.0006010E-4 2.0006010E-4 2.0006010E-4 2.0006010E-4 2.0006010E-4 2.0006010E-4 2.0006010E-4 2.0006010E-4 2.0006010E-4 2.0006010E-4 2.0006010E-4 2.0006010E-4 2.0006010E-4
2.0006010E-4 2.0006010E-4 2.0006010E-4 2.0006010E-4 2.0006010E-4 2.0006010E-4 2.0006010E-4 2.0006010E-4 2.0006010E-4 2.0006010E-4 2.0006010E-4 2.0006010E-4 2.0006010E-4 2.0006010E-4 2.0006010E-4 2.0006010E-4 2.0006010E-4 2.0006010E-4 2.0006010E-4 2.0006010E-4 2.0006010E-4
2.0006010E-4 2.0006010E-4 2.0006010E-4 2.0006010E-4 2.0006010E-4 2.0006010E-4 2.0006010E-4 2.0006010E-4 2.0006010E-4 2.0006010E-4 2.0006010E-4 2.0006010E-4 2.0006010E-4 2.0006010E-4 2.0006010E-4 2.0006010E-4 2.0006010E-4 2.0006010E-4 2.0006010E-4 2.0006010E-4 2.0006010E-4
2.0006010E-4 2.0006010E-4 2.0006010E-4 2.0006010E-4 2.0006010E-4 2.0006010E-4 2.0006010E-4 2.0006010E-4 2.0006010E-4 2.0006010E-4 2.0006010E-4 2.0006010E-4 2.0006010E-4 2.0006010E-4 2.0006010E-4 2.0006010E-4 2.0006010E-4 2.0006010E-4 2.0006010E-4 2.0006010E-4 2.0006010E-4
2.0006010E-4 2.0006010E-4 2.0006010E-4 2.0006010E-4 2.0006010E-4 2.0006010E-4 2.0006010E-4 2.0006010E-4 2.0006010E-4 2.0006010E-4 2.0006010E-4 2.0006010E-4 2.0006010E-4 2.0006010E-4 2.0006010E-4 2.0006010E-4 2.0006010E-4 2.0006010E-4 2.0006010E-4 2.0006010E-4 2.0006010E-4
2.0006010E-4 2.0006010E-4 2.0006010E-4 2.0006010E-4 2.0006010E-4 2.0006010E-4 2.0006010E-4 2.0006010E-4 2.0006010E-4 2.0006010E-4 2.0006010E-4 2.0006010E-4 2.0006010E-4 2.0006010E-4 2.0006010E-4 2.0006010E-4 2.0006010E-4 2.0006010E-4 2.0006010E-4 2.0006010E-4 2.0006010E-4
2.0006010E-4 2.0006010E-4 2.0006010E-4 2.0006010E-4 2.0006010E-4 2.0006010E-4 2.0006010E-4 2.0006010E-4 2.0006010E-4 2.0006010E-4 2.0006010E-4 2.0006010E-4 2.0006010E-4 2.0006010E-4 2.0006010E-4 2.0006010E-4 2.0006010E-4 2.0006010E-4 2.0006010E-4 2.0006010E-4 2.0006010E-4
2.0006010E-4 2.0006010E-4 2.0006010E-4 2.0006010E-4 2.0006010E-4 2.0006010E-4 2.0006010E-4 2.0006010E-4 2.0006010E-4 2.0006010E-4 2.0006010E-4 2.0006010E-4 2.0006010E-4 2.0006010E-4 2.0006010E-4 2.0006010E-4 2.0006010E-4 2.0006010E-4 2.0006010E-4 2.0006010E-4 2.0006010E-4
2.0006010E-4 2.0006010E-4 2.0006010E-4 2.0006010E-4 2.0006010E-4 2.0006010E-4 2.0006010E-4 2.0006010E-4 2.0006010E-4 2.0006010E-4 2.0006010E-4 2.0006010E-4 2.0006010E-4 2.0006010E-4 2.0006010E-4 2.0006010E-4 2.0006010E-4 2.0006010E-4 2.0006010E-4 2.0006010E-4 2.0006010E-4
2.0006010E-4 2.0006010E-4 2.0006010E-4 2.0006010E-4 2.0006010E-4 2.0006010E-4 2.0006010E-4 2.0006010E-4 2.0006010E-4 2.0006010E-4 2.0006010E-4 2.0006010E-4 2.0006010E-4 2.0006010E-4 2.0006010E-4 2.0006010E-4 2.0006010E-4 2.0006010E-4 2.0006010E-4 2.0006010E-4 2.0006010E-4
2.0006010E-4 2.0006010E-4 2.0006010E-4 2.0006010E-4 2.0006010E-4 2.0006010E-4 2.0006010E-4 2.0006010E-4 2.0006010E-4 2.0006010E-4 2.0006010E-4 2.0006010E-4 2.0006010E-4 2.0006010E-4 2.0006010E-4 2.0006010E-4 2.0006010E-4 2.0006010E-4 2.0006010E-4 2.0006010E-4 2.0006010E-4
2.0006010E-4 2.0006010E-4 2.0006010E-4 2.0006010E-4 2.0006010E-4 2.0006010E-4 2.0006010E-4 2.0006010E-4 2.0006010E-4 2.0006010E-4 2.0006010E-4 2.0006010E-4 2.0006010E-4 2.0006010E-4 2.0006010E-4 2.0006010E-4 2.0006010E-4 2.0006010E-4 2.0006010E-4 2.0006010E-4 2.0006010E-4
