# MODFLOW2005 multiplier Package Parent MD
         1
M1
         8         1(FREE)                       0
.01265174268 .01187090530 .01076919274 .00934676500 .00768645703 .00596665023 .00439219646 .00307556708 .00203357152 .00124953329 7.0438195E-4 3.6508307E-4 1.7690161E-4 8.2441697E-5 3.8431134E-5 1.8745120E-5 9.9081162E-6 5.7325879E-6 3.6021116E-6 2.4239201E-6 1.7227771E-6
.01430525539 .01363248456 .01252165801 .01095929938 .00904418552 .00702971988 .00523994395 .00378765052 .00262331684 .00168716142 9.7719674E-4 5.0783246E-4 2.4004705E-4 1.0586319E-4 4.5466621E-5 2.0269190E-5 9.9681666E-6 5.4884860E-6 3.3406714E-6 2.2054437E-6 1.5518698E-6
.01557375823 .01493570238 .01367997948 .01185513867 .00965146374 .00740263950 .00560719822 .00427804041 .00322404043 .00228410453 .00143155156 7.8765439E-4 3.8224450E-4 1.6531306E-4 6.5701101E-5 2.5972875E-5 1.1473881E-5 5.8131046E-6 3.3305449E-6 2.1112799E-6 1.4512324E-6
.01615628623 .01538528635 .01376600886 .01151251770 .00906487825 .00676190136 .00527740990 .00434692195 .00365899230 .00298776650 .00212783044 .00131693387 6.9858452E-4 3.1409014E-4 1.1952873E-4 4.0815316E-5 1.5600405E-5 6.9926483E-6 3.6465384E-6 2.1612889E-6 1.4245386E-6
.01587633172 .01478561755 .01265549024 .00993787444 .00723063400 .00544341946 .00454611942 .00411327955 .00382994897 .00355062380 .00304346584 .00222095985 .00134924677 6.6777490E-4 2.6331730E-4 8.1325652E-5 2.5223652E-5 9.6557420E-6 4.4273250E-6 2.3845427E-6 1.4750831E-6
.01483616784 .01338233322 .01087844383 .00802744440 .00569048820 .00456323616 .00409178171 .00407122798 .00413541980 .00419377692 .00417689594 .00355653578 .00245032821 .00132404715 5.4005483E-4 1.6843160E-4 4.6325066E-5 1.4856190E-5 5.8514410E-6 2.8060425E-6 1.6001453E-6
.01340480270 .01179898454 .00938323728 .00695673937 .00525806991 .00455491666 .00448086604 .00465638841 .00498420065 .00543195868 .00576142915 .00530856802 .00391685255 .00222407486 9.2810614E-4 2.8962385E-4 7.8420027E-5 2.2799629E-5 7.9368064E-6 3.4048709E-6 1.7801646E-6
.01193881739 .01043757872 .00841878888 .00657411600 .00544692138 .00518694521 .00552112780 .00583512724 .00637974254 .00714294734 .00771780623 .00729157480 .00552463381 .00317194467 .00133873136 4.2763318E-4 1.1705996E-4 3.2540552E-5 1.0417430E-5 4.0808224E-6 1.9708024E-6
.01061463352 .00936691631 .00782855202 .00652360417 .00585507452 .00593094656 .00646762214 .00707323408 .00786993349 .00885264167 .00953188209 .00902232266 .00690192516 .00400445990 .00171617479 5.6326804E-4 1.5604436E-4 4.2179430E-5 1.2723978E-5 4.6492084E-6 2.1055156E-6
.00946125995 .00851084203 .00742142861 .00656115904 .00625209477 .00651440577 .00711731384 .00787410751 .00881011611 .00984819175 .01050384223 .00996402652 .00777637878 .00464741342 .00204276154 6.8319201E-4 1.8864919E-4 4.9185940E-5 1.4098167E-5 4.8874374E-6 2.1152656E-6
.00843822271 .00776623153 .00705601502 .00654825533 .00644455259 .00671190092 .00724611549 .00795091403 .00881965384 .00973640707 .01030402187 .00990355445 .00808266953 .00515228607 .00236988270 7.8442221E-4 2.0664082E-4 5.0995243E-5 1.3896050E-5 4.6406518E-6 1.9624426E-6
.00748711548 .00703449334 .00660071867 .00632081866 .00629364893 .00648994195 .00687031974 .00740226821 .00809156776 .00881879946 .00928512311 .00909068715 .00788995722 .00554064659 .00270246432 8.5779140E-4 2.0487465E-4 4.6352361E-5 1.1993958E-5 3.9308148E-6 1.6679311E-6
.00656800282 .00626294554 .00600503725 .00586393133 .00588494154 .00603968062 .00626198857 .00661475475 .00716097173 .00776032526 .00815954135 .00807808218 .00737425373 .00578282909 .00299561820 8.5786318E-4 1.7566140E-4 3.5814065E-5 8.9461684E-6 2.9680253E-6 1.3052128E-6
.00567126750 .00545014988 .00528583019 .00521596047 .00526289148 .00541483889 .00556911692 .00585449817 .00634260875 .00691803173 .00735655607 .00734776263 .00675740650 .00582880435 .00296921754 6.9966029E-4 1.1932966E-4 2.2651642E-5 5.7703170E-6 2.0348053E-6 9.6074915E-7
.00480974245 .00462626876 .00449503996 .00443747676 .00446518318 .00455874692 .00471398457 .00500927188 .00545384684 .00601101621 .00651170734 .00662631630 .00615825886 .00464567650 .00191006190 3.8833061E-4 5.9021981E-5 1.1743744E-5 3.3497303E-6 1.3264757E-6 6.9130319E-7
.00400563501 .00383250722 .00369884537 .00361608365 .00359030789 .00362943646 .00374093231 .00394413146 .00423591858 .00460045555 .00479481940 .00454039229 .00369190802 .00221917208 7.7345394E-4 1.3695165E-4 2.2582832E-5 5.5911804E-6 1.9265082E-6 8.8147562E-7 5.0988692E-7
.00328021073 .00310649682 .00295853030 .00284215715 .00276246915 .00272900038 .00273917686 .00278663199 .00284752098 .00285525189 .00265291589 .00216037813 .00142869943 6.8016782E-4 2.0656750E-4 4.2848924E-5 9.7839878E-6 2.9918370E-6 1.2230357E-6 6.3579780E-7 4.0081660E-7
.00264755756 .00247299547 .00231371112 .00217257411 .00205175959 .00195182925 .00186599765 .00177934647 .00166507318 .00148220897 .00119488120 8.2603373E-4 4.6041615E-4 1.9447081E-4 6.1530690E-5 1.6636508E-5 4.9956789E-6 1.8768133E-6 8.8708770E-7 5.0942532E-7 3.4126732E-7
.00211263665 .00194186412 .00177990293 .00162781732 .00148542824 .00135032476 .00121632555 .00107364062 9.1083404E-4 7.2073884E-4 5.1158991E-4 3.1277174E-4 1.5916846E-4 6.6578382E-5 2.3793456E-5 8.1314159E-6 3.0641159E-6 1.3677439E-6 7.2727474E-7 4.4973355E-7 3.1338404E-7
.00167238444 .00151108309 .00135565358 .00120651206 .00106314171 9.2385099E-4 7.8585495E-4 6.4633503E-4 5.0460685E-4 3.6493365E-4 2.3783870E-4 1.3638057E-4 6.8053972E-5 2.9958532E-5 1.2221459E-5 5.0110077E-6 2.2393529E-6 1.1375651E-6 6.5932494E-7 4.2886123E-7 3.0594882E-7
.00131808985 .00117083163 .00102890078 8.9273662E-4 7.6234726E-4 6.3742581E-4 5.1774319E-4 4.0388402E-4 2.9807914E-4 2.0450380E-4 1.2821922E-4 7.2656119E-5 3.7284248E-5 1.7702802E-5 8.1165358E-6 3.7987764E-6 1.9070735E-6 1.0548822E-6 6.4542907E-7 4.3242436E-7 3.1231950E-7
