# MODFLOW2005 multiplier Package Parent MD
         1
M1
         8         1(FREE)                       0
.00330195560 .00330106431 .00329996681 .00329864715 .00329709492 .00329530879 .00329329924 .00329108812 .00328870708 .00328619550 .00328359651 .00328095309 .00327830935 .00327571112 .00327320337 .00327082518 .00326860334 .00326654831 .00326465846 .00326292537 .00326133706
.00330386496 .00330305153 .00330201734 .00330074049 .00329920434 .00329740238 .00329534325 .00329304767 .00329054710 .00328788422 .00328510788 .00328226404 .00327940225 .00327657810 .00327384920 .00327126901 .00326887708 .00326668661 .00326469397 .00326288741 .00326125063
.00330585346 .00330514651 .00330420823 .00330301073 .00330153068 .00329975471 .00329768993 .00329535106 .00329276185 .00328996310 .00328701110 .00328395114 .00328083929 .00327774427 .00327473901 .00327189517 .00326927748 .00326690514 .00326477473 .00326287199 .00326117543
.00330790488 .00330733581 .00330652940 .00330545134 .00330407258 .00330237104 .00330035521 .00329802549 .00329538892 .00329247292 .00328934679 .00328605039 .00328265212 .00327923929 .00327590459 .00327273090 .00326982622 .00326722011 .00326491344 .00326288941 .00326112002
.00330999302 .00330959423 .00330895683 .00330803877 .00330680084 .00330523254 .00330332507 .00330105814 .00329842117 .00329542046 .00329210310 .00328854379 .00328481963 .00328103895 .00327733439 .00327378858 .00327052435 .00326763453 .00326511480 .00326294577 .00326109097
.00331207980 .00331188309 .00331145229 .00331073729 .00330969566 .00330831484 .00330655647 .00330438522 .00330176711 .00329869491 .00329518850 .00329135106 .00328727127 .00328306280 .00327892540 .00327498180 .00327134228 .00326813110 .00326537100 .00326304029 .00326109126
.00331411300 .00331414717 .00331396084 .00331349858 .00331270799 .00331154693 .00330996746 .00330790275 .00330529668 .00330213046 .00329843920 .00329432276 .00328988907 .00328523884 .00328060099 .00327620960 .00327219063 .00326866056 .00326565849 .00326316425 .00326111983
.00331602227 .00331630410 .00331638532 .00331620600 .00331569808 .00331478308 .00331341383 .00331147475 .00330887536 .00330559276 .00330168151 .00329725403 .00329244046 .00328738469 .00328228467 .00327742665 .00327301600 .00326917911 .00326595178 .00326330637 .00326117368
.00331771930 .00331824128 .00331858145 .00331867487 .00331845531 .00331780542 .00331671135 .00331494166 .00331234569 .00330891318 .00330473631 .00329996272 .00329475959 .00328930715 .00328381529 .00327853714 .00327376112 .00326965222 .00326623208 .00326345819 .00326125031
.00331910821 .00331983072 .00332038173 .00332069065 .00332065365 .00332038617 .00331970002 .00331813756 .00331552308 .00331189591 .00330741312 .00330227605 .00329669509 .00329088692 .00328507622 .00327946093 .00327437602 .00327005931 .00326648916 .00326361484 .00326134818
.00332010851 .00332096890 .00332165819 .00332210742 .00332231637 .00332253463 .00332225707 .00332086487 .00331817599 .00331430523 .00330949647 .00330400972 .00329808661 .00329196305 .00328588176 .00328008651 .00327485227 .00327038767 .00326671205 .00326377002 .00326146471
.00332067606 .00332162051 .00332242193 .00332304468 .00332355025 .00332411613 .00332411799 .00332281936 .00331999704 .00331585527 .00331074525 .00330497869 .00329880523 .00329245916 .00328621270 .00328034338 .00327508268 .00327058226 .00326687471 .00326391211 .00326159549
.00332079207 .00332176602 .00332264156 .00332339877 .00332404504 .00332459447 .00332472527 .00332359730 .00332061538 .00331623502 .00331091675 .00330501008 .00329874871 .00329233050 .00328605410 .00328023624 .00327505323 .00327061892 .00326696127 .00326403377 .00326173827
.00332045413 .00332138537 .00332224884 .00332302602 .00332367680 .00332401611 .00332407748 .00332284377 .00331970277 .00331521417 .00330984317 .00330397999 .00329784120 .00329153888 .00328542138 .00327980427 .00327479316 .00327051192 .00326697971 .00326414070 .00326189714
.00331968368 .00332048942 .00332122540 .00332186097 .00332234010 .00332257797 .00332221656 .00332044311 .00331724195 .00331281996 .00330756210 .00330192273 .00329607571 .00329016130 .00328444714 .00327912208 .00327434874 .00327030098 .00326696005 .00326425201 .00326208264
.00331853279 .00331914116 .00331964964 .00332001263 .00332014739 .00331991181 .00331896965 .00331689766 .00331365400 .00330935455 .00330440663 .00329917914 .00329378968 .00328838881 .00328316003 .00327820639 .00327378027 .00327005347 .00326694857 .00326439361 .00326230713
.00331707863 .00331744420 .00331766281 .00331767389 .00331738161 .00331662258 .00331517868 .00331283528 .00330955700 .00330548552 .00330097539 .00329620301 .00329130809 .00328642281 .00328168257 .00327722207 .00327326089 .00326986131 .00326699018 .00326458531 .00326257757
.00331541007 .00331552031 .00331543638 .00331509041 .00331438717 .00331319945 .00331139206 .00330886729 .00330563635 .00330183911 .00329769853 .00329336024 .00328894154 .00328455712 .00328032529 .00327637451 .00327283692 .00326975191 .00326709812 .00326482944 .00326289079
.00331361243 .00331348283 .00331312409 .00331247061 .00331144194 .00330994975 .00330791894 .00330531763 .00330218725 .00329864443 .00329483965 .00329089449 .00328691079 .00328298677 .00327922189 .00327571432 .00327254249 .00326973164 .00326726731 .00326511590 .00326323572
.00331175715 .00331142075 .00331083771 .00330995125 .00330869976 .00330702633 .00330489490 .00330230787 .00329931722 .00329601787 .00329252117 .00328892734 .00328532449 .00328179556 .00327841990 .00327526796 .00327238864 .00326979807 .00326748651 .00326542995 .00326359796
.00330989774 .00330939453 .00330864384 .00330760065 .00330622127 .00330447170 .00330233848 .00329983828 .00329702107 .00329396290 .00329075024 .00328746586 .00328418531 .00328097814 .00327790722 .00327502433 .00327236341 .00326993692 .00326773967 .00326575550 .00326396284
