# MODFLOW2005 multiplier Package Parent MD
         1
M1
         8         1(FREE)                       0
.00832016103 .00770164019 .00692260277 .00601351491 .00504035054 .00409325544 .00324944559 .00253398971 .00193371566 .00143258499 .00102785242 7.2042416E-4 5.0050068E-4 3.5018568E-4 2.5085404E-4 1.8673378E-4 1.4539086E-4 1.1764986E-4 9.7846374E-5 8.2910288E-5 7.1214421E-5
.00918472446 .00855790816 .00769952859 .00664966247 .00550649143 .00441164826 .00348866313 .00274770534 .00213381541 .00160328622 .00115480595 8.0776434E-4 5.5822256E-4 3.8656097E-4 2.7235274E-4 1.9902553E-4 1.5281060E-4 1.2202878E-4 1.0000603E-4 8.3513265E-5 7.0857802E-5
.00998757879 .00933308685 .00833982752 .00708337731 .00572333545 .00447077521 .00352696740 .00284550013 .00229654018 .00179216181 .00132494128 9.5288899E-4 6.7781076E-4 4.7838713E-4 3.3622340E-4 2.3985473E-4 1.7908192E-4 1.3786698E-4 1.0858321E-4 8.7562773E-5 7.2425220E-5
.01062290821 .00989542314 .00869137576 .00715868068 .00556583592 .00418075921 .00332039589 .00279419143 .00238462887 .00197650831 .00153390845 .00118075697 9.0299740E-4 6.7563799E-4 4.8602473E-4 3.3619684E-4 2.3912276E-4 1.7147460E-4 1.2592467E-4 9.5866900E-5 7.6160523E-5
.01099025625 .01012301007 .00863469185 .00679447617 .00495306216 .00363679822 .00299148731 .00267255299 .00240470440 .00208466460 .00177452824 .00152571070 .00129573673 .00106015390 8.0908529E-4 5.6177639E-4 3.5840917E-4 2.3085289E-4 1.5426351E-4 1.0894058E-4 8.2087614E-5
.01106562644 .01002729343 .00825854957 .00617936716 .00436257505 .00332220889 .00285614500 .00272445118 .00253481192 .00229284633 .00216107633 .00204738746 .00189958745 .00167495562 .00132922801 9.2358748E-4 5.4825470E-4 3.1901324E-4 1.9367529E-4 1.2633695E-4 8.9758367E-5
.01093876345 .00983220778 .00800044525 .00597900113 .00437811196 .00351946442 .00331423590 .00325594017 .00306141951 .00288881425 .00283107524 .00279593117 .00267614385 .00240105976 .00192516817 .00131110329 7.6363982E-4 4.2116603E-4 2.3870364E-4 1.4569243E-4 9.7954686E-5
.01070327662 .00970114861 .00804435089 .00626383579 .00491518142 .00427014888 .00424215002 .00415554647 .00399583802 .00388139516 .00385569258 .00381171716 .00360411176 .00314731711 .00247420377 .00165676698 9.5594553E-4 5.1443412E-4 2.7986145E-4 1.6292410E-4 1.0473945E-4
.01035364387 .00958198722 .00823972065 .00676156624 .00561973346 .00506415677 .00512599356 .00523488598 .00525339218 .00525734972 .00525529882 .00512461594 .00470940220 .00395354861 .00295867587 .00192604882 .00109519759 5.7992067E-4 3.0760918E-4 1.7351509E-4 1.0796594E-4
.00980367956 .00927608861 .00826161244 .00707407581 .00599720877 .00559410115 .00594460461 .00640494000 .00674185098 .00694482690 .00697736798 .00670079422 .00596900573 .00478476256 .00337771412 .00210166784 .00117079736 6.0772550E-4 3.1564757E-4 1.7413482E-4 1.0604235E-4
.00899681663 .00863907443 .00786778192 .00689626229 .00609137641 .00610746691 .00680680019 .00763936922 .00831558876 .00874207217 .00882148341 .00838816926 .00731277056 .00566775290 .00381261634 .00223708090 .00118937350 5.9737826E-4 3.0252222E-4 1.6384669E-4 9.8575560E-5
.00798956380 .00775321852 .00723590865 .00661137474 .00623287108 .00660163980 .00760223696 .00867632055 .00956720798 .01016459731 .01032154076 .00981597623 .00851451912 .00652556916 .00425925051 .00235971680 .00116792677 5.5443833E-4 2.7098128E-4 1.4427314E-4 8.6531770E-5
.00689136342 .00674835669 .00648091225 .00622061250 .00619439684 .00673367212 .00777054839 .00886359591 .00974915017 .01043511710 .01075804573 .01037682131 .00910522246 .00705864885 .00457285574 .00238629276 .00108317910 4.7928532E-4 2.2544241E-4 1.1876785E-4 7.1859234E-5
.00579741728 .00570631716 .00560828040 .00560274935 .00581077796 .00625564372 .00698430388 .00776389439 .00842603705 .00907253784 .00960269162 .00952382660 .00855221309 .00681280938 .00444181235 .00217908742 9.0000400E-4 3.7377068E-4 1.7225913E-4 9.1572736E-5 5.6855121E-5
.00477635060 .00469156102 .00464913163 .00471662166 .00495275383 .00529967727 .00569368513 .00599957867 .00630114447 .00666060337 .00714968392 .00721614409 .00663492301 .00533797285 .00341007531 .00162550909 6.2089927E-4 2.5432878E-4 1.2049503E-4 6.6861761E-5 4.3483635E-5
.00387351125 .00376976915 .00370890857 .00372642188 .00386130734 .00404314744 .00418334340 .00426398054 .00432314733 .00438610839 .00443397670 .00425897096 .00376293082 .00291146218 .00183036290 8.6530085E-4 3.3732938E-4 1.5211176E-4 7.9007890E-5 4.7414628E-5 3.2843558E-5
.00310897192 .00298445378 .00288928751 .00283850118 .00283583799 .00285810465 .00285087465 .00280369981 .00272720034 .00260570432 .00234088037 .00202118813 .00162309170 .00115316250 6.8607811E-4 3.3884138E-4 1.6571541E-4 8.6997179E-5 5.1085116E-5 3.3755471E-5 2.5056554E-5
.00248028555 .00234210152 .00221913256 .00211592558 .00202990378 .00194780099 .00184737129 .00171843621 .00155759259 .00135481785 .00110814133 8.6229553E-4 6.3042145E-4 4.2114375E-4 2.5289148E-4 1.4160547E-4 8.2036459E-5 5.0685096E-5 3.3931705E-5 2.4748136E-5 1.9627782E-5
.00197386794 .00183130609 .00169489357 .00156584669 .00144160522 .00131549380 .00117900534 .00102798636 8.6331354E-4 6.9026030E-4 5.2204487E-4 3.7649096E-4 2.5936785E-4 1.7018448E-4 1.0742840E-4 6.7822479E-5 4.5072819E-5 3.1858885E-5 2.3908290E-5 1.9003849E-5 1.5939088E-5
.00157243587 .00143393452 .00129778939 .00116473210 .00103379888 9.0270400E-4 7.6934342E-4 6.3420153E-4 5.0128628E-4 3.7760510E-4 2.7135268E-4 1.8790134E-4 1.2678776E-4 8.4399311E-5 5.6551992E-5 3.9253343E-5 2.8856625E-5 2.2431551E-5 1.8255640E-5 1.5433141E-5 1.3477978E-5
.00125810758 .00112964612 .00100313166 8.7947055E-4 7.5894513E-4 6.4157407E-4 5.2789740E-4 4.1986933E-4 3.2101142E-4 2.3552606E-4 1.6663599E-4 1.1499238E-4 7.8543160E-5 5.4004892E-5 3.8116856E-5 2.8130556E-5 2.1900307E-5 1.7896054E-5 1.5189922E-5 1.3273034E-5 1.1866446E-5
