# MODFLOW2005 multiplier Package Parent MD
         1
M1
         8         1(FREE)                       0
  5.0096187e-004  5.0547408e-004  5.0561566e-004  5.0661971e-004  5.0696523e-004  5.0624888e-004  5.0488984e-004  5.0366229e-004  5.0428390e-004  5.0048846e-004  4.9998253e-004  4.9791802e-004  4.9475156e-004  4.9865399e-004  4.9646721e-004  4.9730385e-004  4.9591595e-004  4.9931306e-004  4.9596952e-004  4.9752913e-004  5.0204029e-004
  5.0828427e-004  5.0800437e-004  5.0944620e-004  5.1157050e-004  5.0936350e-004  5.1166660e-004  5.0785429e-004  5.0907527e-004  5.0718763e-004  5.0777132e-004  5.0582347e-004  5.0310129e-004  4.9981295e-004  5.0005478e-004  4.9801100e-004  5.0033697e-004  4.9883671e-004  5.0100705e-004  4.9527438e-004  5.0041112e-004  5.0577359e-004
  5.0167844e-004  5.0486982e-004  5.0192538e-004  5.0849898e-004  5.0421970e-004  5.0837216e-004  5.0438727e-004  5.0468326e-004  5.0560765e-004  5.0470253e-004  5.0513123e-004  5.0322810e-004  4.9633414e-004  4.9942568e-004  4.9694133e-004  4.9712862e-004  4.9831163e-004  4.9815753e-004  4.9628576e-004  4.9848509e-004  5.0156083e-004
  5.0887162e-004  5.0781217e-004  5.1280365e-004  5.1196037e-004  5.0960975e-004  5.1343762e-004  5.0938458e-004  5.1200004e-004  5.1196908e-004  5.0782103e-004  5.0724069e-004  5.0716626e-004  5.0170932e-004  5.0330077e-004  5.0081402e-004  5.0184276e-004  5.0227961e-004  5.0175155e-004  5.0218111e-004  5.0401005e-004  5.0794817e-004
  5.0732914e-004  5.0726801e-004  5.1031581e-004  5.1225687e-004  5.1221322e-004  5.1331707e-004  5.1129125e-004  5.1155119e-004  5.1133516e-004  5.0543834e-004  5.0390510e-004  5.0866994e-004  5.0005466e-004  5.0287275e-004  5.0023844e-004  5.0209237e-004  5.0118370e-004  5.0261000e-004  5.0300768e-004  5.0161705e-004  5.0828005e-004
  5.0034826e-004  5.0469996e-004  5.0540700e-004  5.0794148e-004  5.0623551e-004  5.0760509e-004  5.0580702e-004  5.0942834e-004  5.1054766e-004  5.0603879e-004  5.0365991e-004  5.0496052e-004  5.0002201e-004  5.0129172e-004  4.9622122e-004  4.9908037e-004  4.9616029e-004  4.9720375e-004  4.9712458e-004  4.9354808e-004  5.0007392e-004
  5.0353623e-004  5.0563889e-004  5.0433086e-004  5.0811626e-004  5.0861032e-004  5.0633915e-004  5.0514592e-004  5.0745821e-004  5.0610293e-004  5.0322005e-004  5.0710478e-004  5.0361214e-004  4.9762690e-004  4.9983655e-004  4.9553932e-004  4.9857605e-004  4.9840579e-004  4.9813719e-004  4.9844443e-004  4.9561457e-004  5.0187079e-004
  5.0021011e-004  5.0083816e-004  5.0474688e-004  5.0486565e-004  5.0637034e-004  5.0358283e-004  5.0241167e-004  5.0442722e-004  5.0390128e-004  5.0108926e-004  5.0160059e-004  4.9865043e-004  4.9346953e-004  4.9437509e-004  4.9255293e-004  4.9477173e-004  4.9275427e-004  4.9320467e-004  4.9217596e-004  4.9325134e-004  5.0059789e-004
  5.0068481e-004  5.0273887e-004  5.0560124e-004  5.0408742e-004  5.0540039e-004  5.0393625e-004  5.0198992e-004  5.0271327e-004  5.0141930e-004  4.9845796e-004  5.0074693e-004  4.9808524e-004  4.9311979e-004  4.9332798e-004  4.8763064e-004  4.9341451e-004  4.9340752e-004  4.9548218e-004  4.9356973e-004  4.9183808e-004  4.9585338e-004
  4.9921889e-004  5.0195549e-004  5.0203776e-004  5.0064357e-004  5.0338123e-004  5.0200556e-004  4.9795183e-004  5.0331000e-004  4.9916645e-004  4.9873728e-004  4.9634810e-004  4.9681547e-004  4.8937126e-004  4.8742601e-004  4.8630432e-004  4.8871752e-004  4.9195549e-004  4.9040810e-004  4.9007684e-004  4.9161657e-004  4.9720557e-004
  4.9859489e-004  5.0261525e-004  5.0372495e-004  5.0239305e-004  5.0086431e-004  4.9976674e-004  4.9572034e-004  5.0254807e-004  5.0063814e-004  4.9865030e-004  4.9909282e-004  4.9611781e-004  4.9010831e-004  4.9148880e-004  4.9133739e-004  4.9593633e-004  4.9595334e-004  4.9664590e-004  4.9088072e-004  4.9406610e-004  4.9791842e-004
  4.9364820e-004  4.9744921e-004  4.9806592e-004  4.9674564e-004  5.0132376e-004  4.9809665e-004  4.9627537e-004  5.0426023e-004  4.9916434e-004  4.9803320e-004  4.9553461e-004  4.9294441e-004  4.8781106e-004  4.8847170e-004  4.8983043e-004  4.9362694e-004  4.9547343e-004  4.9339459e-004  4.8725297e-004  4.9057881e-004  4.9435709e-004
  4.9744725e-004  4.9981799e-004  5.0098366e-004  5.0320880e-004  5.0214221e-004  5.0195169e-004  5.0000994e-004  5.0397315e-004  4.9898636e-004  4.9566109e-004  4.9674523e-004  4.9313140e-004  4.8695813e-004  4.8713747e-004  4.8761766e-004  4.9207016e-004  4.9370905e-004  4.9401166e-004  4.8588589e-004  4.8991307e-004  4.9320942e-004
  4.9758784e-004  5.0079503e-004  5.0170883e-004  5.0031862e-004  5.0255521e-004  5.0282484e-004  5.0249930e-004  5.0155532e-004  4.9904790e-004  4.9247749e-004  4.9604239e-004  4.9246928e-004  4.8808953e-004  4.9197039e-004  4.8919544e-004  4.9110609e-004  4.8957725e-004  4.9178566e-004  4.8920832e-004  4.9460292e-004  4.9426647e-004
  5.0143193e-004  5.0327128e-004  5.0500054e-004  5.0193529e-004  5.0419263e-004  5.0591701e-004  5.0485889e-004  5.0728358e-004  5.0512853e-004  5.0267915e-004  5.0385533e-004  5.0125553e-004  4.9725964e-004  4.9861863e-004  4.9581325e-004  4.9624831e-004  4.9693432e-004  4.9993769e-004  4.9493516e-004  4.9696616e-004  5.0019783e-004
  4.9705326e-004  4.9881123e-004  5.0094259e-004  4.9900711e-004  5.0169041e-004  5.0433963e-004  5.0399232e-004  5.0197252e-004  5.0383240e-004  5.0026633e-004  5.0227015e-004  4.9887397e-004  4.9775421e-004  5.0013184e-004  4.9613558e-004  4.9813279e-004  4.9767343e-004  4.9528931e-004  4.9142731e-004  4.9505039e-004  4.9563009e-004
  4.9682428e-004  4.9893228e-004  5.0319055e-004  4.9593219e-004  4.9980816e-004  5.0483225e-004  5.0333051e-004  5.0351417e-004  5.0078184e-004  5.0098608e-004  5.0059235e-004  4.9345190e-004  4.9163693e-004  4.9622963e-004  4.9208707e-004  4.9187770e-004  4.9286113e-004  4.9217937e-004  4.9227457e-004  4.9362512e-004  4.9357073e-004
  4.9570508e-004  4.9963868e-004  5.0098395e-004  4.9990950e-004  4.9933446e-004  5.0559604e-004  5.0455424e-004  5.0345405e-004  5.0052969e-004  4.9748203e-004  4.9985583e-004  4.9646397e-004  4.9283038e-004  4.9445173e-004  4.9090955e-004  4.9260145e-004  4.9128809e-004  4.9252460e-004  4.9144570e-004  4.9313734e-004  4.9570109e-004
  4.9760795e-004  5.0107537e-004  5.0323980e-004  5.0386156e-004  5.0197285e-004  5.0471676e-004  5.0096921e-004  5.0366069e-004  4.9963774e-004  5.0041418e-004  5.0227813e-004  5.0092432e-004  4.9588642e-004  4.9682733e-004  4.9374575e-004  4.9747690e-004  4.9483085e-004  4.9734250e-004  4.9177371e-004  4.9617576e-004  4.9812367e-004
  5.0127279e-004  5.0295240e-004  5.0572341e-004  5.0758001e-004  5.0341458e-004  5.0382705e-004  5.0295490e-004  5.0829871e-004  5.0346343e-004  5.0120752e-004  5.0352735e-004  5.0138112e-004  4.9746422e-004  5.0333130e-004  4.9933093e-004  4.9883082e-004  4.9740079e-004  4.9680727e-004  4.9692643e-004  5.0000923e-004  5.0056995e-004
  5.0366037e-004  5.0643113e-004  5.0770227e-004  5.0946491e-004  5.0840318e-004  5.0188930e-004  5.0427162e-004  5.0611187e-004  5.0323692e-004  5.0256281e-004  5.0490184e-004  5.0395369e-004  4.9824048e-004  5.0305237e-004  4.9573212e-004  4.9715135e-004  4.9700907e-004  4.9904124e-004  4.9738862e-004  4.9932745e-004  5.0573563e-004
