ptf ~
# MODFLOW2005 multiplier Package Parent MD
         1
M1        
         8         1(FREE)                       0
~    p650~