# MODFLOW2005 multiplier Package Parent MD
         1
M1
         8         1(FREE)                       0
   2.2969109e+01   4.3720784e+01   4.3670660e+01   4.5404381e+01   2.6808943e+01   3.5899363e+01   4.5636491e+01   3.8387268e+01   8.7024635e+00   8.0134761e+00   8.8891609e+00   9.6101637e+00   3.3326309e+00   1.0852408e+00   1.7030812e+00   1.5878921e+00   1.3916921e+00   1.2149889e+00   6.8126854e+00   4.8675490e+00   9.1829367e+00
   2.7633398e+01   2.8354787e+01   2.7243568e+01   2.6559843e+01   1.4216920e+01   5.6907356e+01   3.9933161e+01   2.3349996e+01   9.7802361e+00   3.6413590e+00   1.1900978e+01   8.9097800e+00   3.2445453e+00   1.5744096e+00   1.3335168e+00   1.5973722e+00   7.3816512e-01   1.4223776e+00   2.3394824e+00   4.6289202e+00   1.9665347e+01
   1.5350383e+01   2.9370135e+01   2.2683434e+01   3.7618806e+01   1.3594292e+01   5.6816623e+01   2.0271263e+01   6.4111940e+00   5.3633115e+00   4.8784255e+00   1.2166045e+01   5.3396843e+00   2.4787894e+00   1.4493973e+00   4.0942544e+00   2.7942054e+00   3.1098403e+00   5.9206340e+00   6.9162960e+00   1.0117300e+01   6.2709705e+01
   1.8233844e+01   1.8353195e+01   1.4400313e+01   1.0071906e+01   1.0699761e+01   1.4564402e+01   7.5444551e+00   3.4326174e+00   7.3472289e+00   4.5893270e+00   8.1221366e+00   6.9082501e+00   1.6592072e+00   1.5318409e+00   3.1345227e+00   2.5207482e+00   4.1997252e+00   6.1820734e+00   5.2198410e+00   1.0809391e+01   6.9307530e+01
   3.1321895e+01   3.9750959e+01   2.6690196e+01   2.6018505e+01   2.5774706e+01   1.4053507e+01   4.9391897e+00   5.1827966e+00   6.7784455e+00   2.0802085e+00   2.4292208e+00   2.4841259e+00   6.0681590e-01   9.4240197e-01   3.1127382e+00   8.1976665e-01   1.2481058e+00   1.7664563e+00   1.0233361e+01   9.6857519e+00   5.2561915e+01
   3.8096613e+01   2.5725187e+01   1.8015155e+01   1.7140258e+01   6.2800522e+01   3.9705650e+01   1.3137452e+01   1.9428341e+01   2.2356502e+01   6.4442337e+00   1.0786487e+01   8.8574977e+00   1.7072396e+00   1.3407942e+00   3.7795416e+00   2.4282996e+00   2.5465473e+00   5.3271257e+00   1.6153600e+01   1.3932060e+01   4.0497378e+01
   4.0084688e+01   4.6460639e+01   4.0300243e+01   4.5075452e+01   2.4529328e+01   3.1852497e+01   8.3017564e+00   4.1575283e+01   3.7963560e+01   3.6124614e+01   5.4138041e+01   1.3796399e+01   6.0406530e+00   1.0036625e+01   7.2585128e+00   8.4388025e+00   6.6031427e+00   8.0948920e+00   3.7163093e+01   5.5580397e+01   1.0514619e+02
   5.2222169e+01   9.3229770e+01   4.1379540e+01   3.5839381e+01   3.4861751e+01   5.0034733e+01   4.2468683e+01   1.9138926e+01   4.2393504e+01   5.5267144e+01   2.7229055e+01   8.7111416e+00   6.6652572e+00   6.7995475e+00   5.0343968e+00   1.1022311e+01   1.4333637e+01   1.3736255e+01   6.3572208e+01   4.9013936e+01   6.8024052e+01
   8.5664111e+01   1.3218909e+02   1.2365951e+02   8.8072281e+01   1.1260760e+02   9.5330257e+01   1.1332396e+02   1.0603245e+01   1.2430031e+01   3.5621805e+01   4.6639515e+01   7.9362013e+00   1.0274766e+01   1.0126394e+01   4.9304951e+00   1.5736043e+01   2.3415987e+01   1.2259577e+01   8.5766061e+01   6.4296724e+01   1.0417384e+02
   5.2453744e+01   4.1596489e+01   1.0352559e+02   8.4043897e+01   5.0823360e+01   9.9922842e+01   1.0103774e+02   3.7534815e+01   2.0332211e+01   8.6155227e+01   4.8689700e+01   6.9154288e+00   6.7259493e+00   5.6380911e+00   1.3230467e+00   1.3210539e+01   3.5610465e+00   4.3437122e+00   2.1265056e+01   1.9479359e+01   3.5346653e+01
   3.8293521e+01   1.0419717e+02   6.7298984e+01   4.3679115e+01   4.6416720e+01   2.6869715e+01   3.8896005e+01   1.4172308e+01   1.8936131e+01   5.6097929e+01   1.1175088e+01   7.1806126e+00   2.7420447e+00   9.2118687e+00   9.1307947e+00   1.8554804e+01   1.8728408e+01   2.7769112e+01   4.8688943e+01   6.8457925e+01   7.7856814e+01
   5.3215571e+01   8.1598226e+01   5.2494287e+01   7.7015858e+01   2.2595045e+02   1.3392265e+02   4.6798532e+01   2.2241866e+01   4.3470927e+01   2.4444402e+01   5.8232898e+00   7.3024254e+00   2.9227876e+00   6.7457599e+00   1.5796839e+01   1.7096234e+01   1.0248609e+01   9.8708784e+00   2.0498519e+01   4.7705761e+01   3.6178597e+01
   4.2600229e+01   7.2802383e+01   1.3003605e+02   1.2233996e+02   4.8001674e+02   8.0069328e+01   8.9492370e+01   3.5666489e+01   3.3407061e+01   1.9245778e+01   6.4836583e+00   3.2739145e+00   2.9513228e+00   1.0593909e+01   2.2416164e+01   1.0752599e+01   5.5838714e+00   9.6652235e+00   1.3463468e+01   1.6684666e+01   3.0321843e+01
   4.3278797e+01   6.9590924e+01   6.8422243e+01   2.6432069e+02   3.7142630e+02   6.6125739e+01   7.2632875e+01   3.4463974e+01   1.4845411e+01   1.1377878e+01   5.8037686e+00   2.9591886e+00   2.0355200e+00   2.9007375e+00   7.2880025e+00   1.2380131e+01   5.8250100e+00   9.4461898e+00   2.9500217e+01   2.4727111e+01   1.7942333e+01
   7.2455919e+01   1.3704016e+02   1.9100001e+02   1.2284738e+02   1.2414509e+02   2.9504321e+01   2.0605389e+01   1.4529019e+01   1.1734721e+01   7.1221352e+00   1.9043862e+00   3.0623543e+00   1.6000907e+00   4.2802549e+00   3.2950004e+00   4.9948638e+00   3.2214173e+00   9.1055372e+00   2.0208083e+01   4.2214877e+01   2.5843117e+01
   5.4272890e+01   7.0806962e+01   5.7395090e+01   2.9532365e+01   3.6763737e+01   1.2379518e+01   1.3095514e+01   1.0182223e+01   1.0106120e+01   5.7562565e+00   3.3287952e+00   2.1133387e+00   1.3021128e+00   2.5838709e+00   3.6720394e+00   7.8983271e+00   3.1965878e+00   4.2153644e+00   2.3567439e+01   4.1580452e+01   3.5031019e+01
   8.1937291e+01   1.1433539e+02   1.0929423e+02   4.1542512e+01   7.2788462e+01   2.9806882e+01   2.2907690e+01   2.0948068e+01   1.1085107e+01   3.7946552e+00   6.6087031e+00   3.4802136e+00   1.5831547e+00   7.6490105e-01   9.4995058e-01   2.4676826e+00   2.9313493e+00   2.6955897e+00   7.1799462e+00   2.1817053e+01   1.5593848e+01
   1.5882207e+01   3.1257863e+01   1.2020490e+02   2.5302197e+01   4.5760451e+01   4.3989581e+01   1.7421190e+01   2.1464202e+01   1.3347141e+01   1.5455364e+01   1.0130128e+01   6.9137216e+00   2.9130954e+00   4.4535148e+00   2.2304108e+00   3.4743744e+00   5.0517844e+00   1.7430298e+00   1.2528762e+01   3.6789706e+01   7.2674325e+00
   5.1721045e+01   6.2647197e+01   1.2063021e+02   5.2374902e+01   8.7215590e+01   6.8999388e+01   4.3992932e+01   8.6446132e+01   1.1846130e+01   1.1114201e+01   8.0029352e+00   7.7002414e+00   2.5380786e+00   1.6946855e+00   1.9621173e+00   3.3858500e+00   1.2152866e+01   3.1811785e+00   6.4469289e+00   2.1231036e+01   1.0917424e+01
   9.0296066e+01   1.0356565e+02   8.2788264e+01   2.6195116e+01   1.9485098e+01   2.0569955e+01   1.4656722e+01   2.8893275e+01   1.3254012e+01   2.1503170e+01   1.5913411e+01   3.5402787e+01   8.2837228e+00   6.5569647e+00   7.6016777e+00   4.9804539e+00   1.2628244e+01   9.4413490e+00   7.7496013e+00   1.7875651e+01   2.3050978e+01
   9.9029326e+01   1.0482153e+02   5.9746024e+01   4.9002205e+01   2.6793825e+01   1.8138811e+01   3.2434449e+01   2.8970762e+01   1.0098547e+01   2.3623682e+01   1.6915004e+01   1.7195793e+01   4.2915461e+00   3.7775163e+00   7.0794630e+00   2.4596729e+00   1.0354812e+01   9.7749490e+00   1.9718731e+01   2.2340334e+01   8.1230306e+00
