# MODFLOW2005 multiplier Package Parent MD
         1
M1
         8         1(FREE)                       0
.00713298307 .00637893116 .00550314055 .00455488100 .00361180867 .00276095152 .00206153040 .00151671250 .00109640337 7.7137379E-4 5.2605636E-4 3.5094580E-4 2.3260133E-4 1.5570943E-4 1.0720153E-4 7.7304796E-5 5.8901508E-5 4.7008136E-5 3.8736553E-5 3.2609411E-5 2.7877758E-5
.00806079824 .00724483420 .00623220740 .00509426477 .00395250694 .00294766713 .00217383944 .00161003828 .00118631404 8.5040187E-4 5.8576647E-4 3.9309115E-4 2.6130410E-4 1.7400180E-4 1.1776643E-4 8.3062590E-5 6.2296472E-5 4.9010653E-5 3.9745549E-5 3.2931256E-5 2.7782283E-5
.00897258072 .00806793299 .00685101657 .00544887896 .00406257256 .00290390614 .00211354864 .00159991298 .00122999043 9.2325771E-4 6.6031160E-4 4.6354730E-4 3.2348978E-4 2.2296161E-4 1.5120969E-4 1.0342526E-4 7.4984740E-5 5.6492877E-5 4.3753909E-5 3.4841311E-5 2.8567360E-5
.00976591956 .00872658222 .00722856430 .00549917930 .00386650413 .00260043249 .00188817622 .00149148384 .00121648705 9.7548077E-4 7.4060426E-4 5.6888245E-4 4.3883736E-4 3.2945545E-4 2.3263605E-4 1.5348775E-4 1.0498347E-4 7.2655860E-5 5.1892607E-5 3.8710740E-5 3.0338029E-5
.01033930696 .00910855410 .00727229670 .00521436878 .00335185594 .00216979051 .00163098053 .00137163322 .00117617777 9.7677121E-4 8.1891392E-4 7.1405678E-4 6.2615509E-4 5.3010436E-4 4.1125789E-4 2.7921537E-4 1.6624745E-4 1.0156282E-4 6.5233841E-5 4.4770878E-5 3.3095596E-5
.01066661422 .00923484107 .00708387231 .00478053966 .00295732817 .00199187808 .00156424050 .00140162938 .00122498652 .00104585457 9.5680086E-4 9.1016386E-4 8.7167730E-4 8.0550783E-4 6.6250812E-4 4.6255590E-4 2.6100177E-4 1.4387508E-4 8.3595876E-5 5.2745854E-5 3.6605569E-5
.01083497903 .00934180129 .00710791589 .00481695987 .00312579918 .00223973318 .00194146571 .00176033142 .00151203302 .00131069852 .00120775369 .00116000094 .00111616555 .00103313387 8.7001499E-4 6.1025540E-4 3.5242523E-4 1.8891886E-4 1.0359520E-4 6.1332044E-5 4.0245964E-5
.01091408582 .00957844352 .00752010958 .00539344056 .00381368785 .00298141117 .00270342306 .00238589818 .00204514638 .00177369599 .00160143561 .00148428212 .00136574510 .00120664849 9.9521677E-4 7.0114178E-4 4.1584762E-4 2.2432638E-4 1.2023528E-4 6.8455995E-5 4.3075908E-5
.01083307693 .00981755530 .00811284466 .00622983217 .00471752875 .00382403731 .00350655095 .00319935124 .00282197056 .00247068232 .00218680335 .00194127608 .00168851641 .00140348651 .00108666099 7.5199585E-4 4.5028396E-4 2.4456427E-4 1.2971765E-4 7.2148500E-5 4.4161863E-5
.01041804032 .00972881048 .00841480770 .00681264720 .00524197663 .00444749319 .00434620266 .00421372767 .00389442828 .00348088622 .00305252936 .00261922605 .00216160315 .00167477886 .00119221244 7.8073338E-4 4.6606310E-4 2.5028163E-4 1.3070884E-4 7.1394306E-5 4.2993343E-5
.00957553842 .00909215140 .00807155367 .00671248418 .00545493527 .00512257101 .00537834597 .00553075476 .00534633461 .00490076696 .00430939276 .00363571146 .00290421532 .00214030275 .00141960290 8.5268951E-4 4.7560327E-4 2.4534726E-4 1.2433380E-4 6.6552038E-5 3.9738983E-5
.00842642233 .00808647825 .00742177135 .00657836820 .00591858170 .00599269375 .00666074421 .00710795958 .00710429871 .00669466131 .00597955932 .00505766312 .00401551427 .00290894254 .00183372906 .00100515206 4.9982580E-4 2.3627148E-4 1.1331456E-4 5.9029907E-5 3.5127992E-5
.00717929405 .00696107115 .00668042987 .00645576891 .00647595918 .00697301849 .00779743184 .00842874621 .00863675552 .00843118251 .00777841395 .00671183347 .00539733645 .00396412386 .00243403278 .00120830408 5.2436602E-4 2.2130357E-4 9.9153073E-5 5.0274226E-5 3.0026398E-5
.00599462723 .00585405050 .00584397140 .00609621291 .00670064419 .00741276213 .00805827211 .00868464433 .00907915785 .00925787512 .00898981529 .00804228075 .00658214685 .00495621546 .00303926423 .00136497081 5.1200066E-4 1.9365931E-4 8.2348815E-5 4.1370037E-5 2.5130607E-5
.00495965966 .00484123736 .00491673878 .00531821456 .00612885476 .00689156153 .00739125634 .00777938415 .00816520512 .00855877520 .00873326860 .00812771563 .00686410809 .00512685119 .00302976005 .00128546157 4.2277057E-4 1.5110461E-4 6.4329806E-5 3.3208375E-5 2.0894067E-5
.00410536060 .00398037845 .00401808239 .00429788475 .00493461289 .00559315604 .00598444918 .00625112720 .00648702518 .00674952577 .00676979328 .00616277785 .00506363802 .00362167298 .00208132146 8.6274350E-4 2.7267290E-4 1.0462102E-4 4.8065546E-5 2.6511192E-5 1.7535468E-5
.00341936839 .00328915022 .00327522786 .00341467810 .00371463362 .00410532449 .00438417938 .00454267193 .00461596234 .00456215677 .00415528909 .00348536455 .00263142010 .00171780994 9.1392713E-4 3.8578821E-4 1.5690439E-4 6.9666927E-5 3.5838970E-5 2.1532403E-5 1.5048248E-5
.00286386126 .00272969566 .00266794529 .00269040907 .00279018119 .00292709671 .00301469561 .00300723618 .00288499006 .00261363159 .00217375920 .00165797685 .00114600621 7.0130023E-4 3.7351956E-4 1.7955921E-4 8.8143689E-5 4.6547081E-5 2.7301510E-5 1.7987584E-5 1.3272509E-5
.00240488452 .00226714844 .00216962248 .00211431187 .00209139000 .00207454217 .00202209245 .00190158918 .00169816484 .00141537261 .00108626007 7.6859362E-4 5.0187386E-4 3.0230418E-4 1.7007538E-4 9.3456436E-5 5.3552176E-5 3.2799034E-5 2.1690251E-5 1.5548334E-5 1.2041860E-5
.00202114147 .00188226682 .00176400425 .00166527085 .00157809472 .00148674594 .00137075630 .00121517267 .00101878545 7.9716456E-4 5.7913327E-4 3.9302892E-4 2.5198055E-4 1.5490443E-4 9.3503991E-5 5.7397985E-5 3.7005080E-5 2.5281104E-5 1.8287179E-5 1.3974612E-5 1.1235994E-5
.00170006845 .00156404172 .00143881963 .00132272919 .00121057885 .00109409632 9.6453700E-4 8.1770756E-4 6.5798370E-4 4.9828000E-4 3.5496095E-4 2.3998510E-4 1.5635228E-4 1.0009209E-4 6.4438917E-5 4.2726512E-5 2.9652146E-5 2.1601660E-5 1.6463218E-5 1.3071379E-5 1.0766383E-5
