pcf
* control data
norestart estimation
      4200        36         3         0         3
         1         1    single     point         1         0         0
5.0  -3.0  0.3  0.03    10
3.0   3.0 0.001  0
0.1
    -2   0.01     3     3  0.01     3
0  0  0  
* parameter groups
layer_uno      relative  0.01 0.0 always_2 2.0 parabolic
layer_due      relative  0.01 0.0 always_2 2.0 parabolic
layer_tre      relative  0.01 0.0 always_2 2.0 parabolic
* parameter data
p0001          none relative 5.00000000e-04 -1.0E-10 1.0E+10 layer_uno 1.000 0.00 1
p0002          none relative 5.00000000e-04 -1.0E-10 1.0E+10 layer_uno 1.000 0.00 1
p0003          none relative 5.00000000e-04 -1.0E-10 1.0E+10 layer_uno 1.000 0.00 1
p0004          none relative 5.00000000e-04 -1.0E-10 1.0E+10 layer_uno 1.000 0.00 1
p0005          none relative 5.00000000e-04 -1.0E-10 1.0E+10 layer_uno 1.000 0.00 1
p0006          none relative 5.00000000e-04 -1.0E-10 1.0E+10 layer_uno 1.000 0.00 1
p0007          none relative 5.00000000e-04 -1.0E-10 1.0E+10 layer_uno 1.000 0.00 1
p0008          none relative 5.00000000e-04 -1.0E-10 1.0E+10 layer_uno 1.000 0.00 1
p0009          none relative 5.00000000e-04 -1.0E-10 1.0E+10 layer_uno 1.000 0.00 1
p0010          none relative 5.00000000e-04 -1.0E-10 1.0E+10 layer_uno 1.000 0.00 1
p0011          none relative 5.00000000e-04 -1.0E-10 1.0E+10 layer_uno 1.000 0.00 1
p0012          none relative 5.00000000e-04 -1.0E-10 1.0E+10 layer_uno 1.000 0.00 1
p0013          none relative 5.00000000e-04 -1.0E-10 1.0E+10 layer_uno 1.000 0.00 1
p0014          none relative 5.00000000e-04 -1.0E-10 1.0E+10 layer_uno 1.000 0.00 1
p0015          none relative 5.00000000e-04 -1.0E-10 1.0E+10 layer_uno 1.000 0.00 1
p0016          none relative 5.00000000e-04 -1.0E-10 1.0E+10 layer_uno 1.000 0.00 1
p0017          none relative 5.00000000e-04 -1.0E-10 1.0E+10 layer_uno 1.000 0.00 1
p0018          none relative 5.00000000e-04 -1.0E-10 1.0E+10 layer_uno 1.000 0.00 1
p0019          none relative 5.00000000e-04 -1.0E-10 1.0E+10 layer_uno 1.000 0.00 1
p0020          none relative 5.00000000e-04 -1.0E-10 1.0E+10 layer_uno 1.000 0.00 1
p0021          none relative 5.00000000e-04 -1.0E-10 1.0E+10 layer_uno 1.000 0.00 1
p0022          none relative 5.00000000e-04 -1.0E-10 1.0E+10 layer_uno 1.000 0.00 1
p0023          none relative 5.00000000e-04 -1.0E-10 1.0E+10 layer_uno 1.000 0.00 1
p0024          none relative 5.00000000e-04 -1.0E-10 1.0E+10 layer_uno 1.000 0.00 1
p0025          none relative 5.00000000e-04 -1.0E-10 1.0E+10 layer_uno 1.000 0.00 1
p0026          none relative 5.00000000e-04 -1.0E-10 1.0E+10 layer_uno 1.000 0.00 1
p0027          none relative 5.00000000e-04 -1.0E-10 1.0E+10 layer_uno 1.000 0.00 1
p0028          none relative 5.00000000e-04 -1.0E-10 1.0E+10 layer_uno 1.000 0.00 1
p0029          none relative 5.00000000e-04 -1.0E-10 1.0E+10 layer_uno 1.000 0.00 1
p0030          none relative 5.00000000e-04 -1.0E-10 1.0E+10 layer_uno 1.000 0.00 1
p0031          none relative 5.00000000e-04 -1.0E-10 1.0E+10 layer_uno 1.000 0.00 1
p0032          none relative 5.00000000e-04 -1.0E-10 1.0E+10 layer_uno 1.000 0.00 1
p0033          none relative 5.00000000e-04 -1.0E-10 1.0E+10 layer_uno 1.000 0.00 1
p0034          none relative 5.00000000e-04 -1.0E-10 1.0E+10 layer_uno 1.000 0.00 1
p0035          none relative 5.00000000e-04 -1.0E-10 1.0E+10 layer_uno 1.000 0.00 1
p0036          none relative 5.00000000e-04 -1.0E-10 1.0E+10 layer_uno 1.000 0.00 1
p0037          none relative 5.00000000e-04 -1.0E-10 1.0E+10 layer_uno 1.000 0.00 1
p0038          none relative 5.00000000e-04 -1.0E-10 1.0E+10 layer_uno 1.000 0.00 1
p0039          none relative 5.00000000e-04 -1.0E-10 1.0E+10 layer_uno 1.000 0.00 1
p0040          none relative 5.00000000e-04 -1.0E-10 1.0E+10 layer_uno 1.000 0.00 1
p0041          none relative 5.00000000e-04 -1.0E-10 1.0E+10 layer_uno 1.000 0.00 1
p0042          none relative 5.00000000e-04 -1.0E-10 1.0E+10 layer_uno 1.000 0.00 1
p0043          none relative 5.00000000e-04 -1.0E-10 1.0E+10 layer_uno 1.000 0.00 1
p0044          none relative 5.00000000e-04 -1.0E-10 1.0E+10 layer_uno 1.000 0.00 1
p0045          none relative 5.00000000e-04 -1.0E-10 1.0E+10 layer_uno 1.000 0.00 1
p0046          none relative 5.00000000e-04 -1.0E-10 1.0E+10 layer_uno 1.000 0.00 1
p0047          none relative 5.00000000e-04 -1.0E-10 1.0E+10 layer_uno 1.000 0.00 1
p0048          none relative 5.00000000e-04 -1.0E-10 1.0E+10 layer_uno 1.000 0.00 1
p0049          none relative 5.00000000e-04 -1.0E-10 1.0E+10 layer_uno 1.000 0.00 1
p0050          none relative 5.00000000e-04 -1.0E-10 1.0E+10 layer_uno 1.000 0.00 1
p0051          none relative 5.00000000e-04 -1.0E-10 1.0E+10 layer_uno 1.000 0.00 1
p0052          none relative 5.00000000e-04 -1.0E-10 1.0E+10 layer_uno 1.000 0.00 1
p0053          none relative 5.00000000e-04 -1.0E-10 1.0E+10 layer_uno 1.000 0.00 1
p0054          none relative 5.00000000e-04 -1.0E-10 1.0E+10 layer_uno 1.000 0.00 1
p0055          none relative 5.00000000e-04 -1.0E-10 1.0E+10 layer_uno 1.000 0.00 1
p0056          none relative 5.00000000e-04 -1.0E-10 1.0E+10 layer_uno 1.000 0.00 1
p0057          none relative 5.00000000e-04 -1.0E-10 1.0E+10 layer_uno 1.000 0.00 1
p0058          none relative 5.00000000e-04 -1.0E-10 1.0E+10 layer_uno 1.000 0.00 1
p0059          none relative 5.00000000e-04 -1.0E-10 1.0E+10 layer_uno 1.000 0.00 1
p0060          none relative 5.00000000e-04 -1.0E-10 1.0E+10 layer_uno 1.000 0.00 1
p0061          none relative 5.00000000e-04 -1.0E-10 1.0E+10 layer_uno 1.000 0.00 1
p0062          none relative 5.00000000e-04 -1.0E-10 1.0E+10 layer_uno 1.000 0.00 1
p0063          none relative 5.00000000e-04 -1.0E-10 1.0E+10 layer_uno 1.000 0.00 1
p0064          none relative 5.00000000e-04 -1.0E-10 1.0E+10 layer_uno 1.000 0.00 1
p0065          none relative 5.00000000e-04 -1.0E-10 1.0E+10 layer_uno 1.000 0.00 1
p0066          none relative 5.00000000e-04 -1.0E-10 1.0E+10 layer_uno 1.000 0.00 1
p0067          none relative 5.00000000e-04 -1.0E-10 1.0E+10 layer_uno 1.000 0.00 1
p0068          none relative 5.00000000e-04 -1.0E-10 1.0E+10 layer_uno 1.000 0.00 1
p0069          none relative 5.00000000e-04 -1.0E-10 1.0E+10 layer_uno 1.000 0.00 1
p0070          none relative 5.00000000e-04 -1.0E-10 1.0E+10 layer_uno 1.000 0.00 1
p0071          none relative 5.00000000e-04 -1.0E-10 1.0E+10 layer_uno 1.000 0.00 1
p0072          none relative 5.00000000e-04 -1.0E-10 1.0E+10 layer_uno 1.000 0.00 1
p0073          none relative 5.00000000e-04 -1.0E-10 1.0E+10 layer_uno 1.000 0.00 1
p0074          none relative 5.00000000e-04 -1.0E-10 1.0E+10 layer_uno 1.000 0.00 1
p0075          none relative 5.00000000e-04 -1.0E-10 1.0E+10 layer_uno 1.000 0.00 1
p0076          none relative 5.00000000e-04 -1.0E-10 1.0E+10 layer_uno 1.000 0.00 1
p0077          none relative 5.00000000e-04 -1.0E-10 1.0E+10 layer_uno 1.000 0.00 1
p0078          none relative 5.00000000e-04 -1.0E-10 1.0E+10 layer_uno 1.000 0.00 1
p0079          none relative 5.00000000e-04 -1.0E-10 1.0E+10 layer_uno 1.000 0.00 1
p0080          none relative 5.00000000e-04 -1.0E-10 1.0E+10 layer_uno 1.000 0.00 1
p0081          none relative 5.00000000e-04 -1.0E-10 1.0E+10 layer_uno 1.000 0.00 1
p0082          none relative 5.00000000e-04 -1.0E-10 1.0E+10 layer_uno 1.000 0.00 1
p0083          none relative 5.00000000e-04 -1.0E-10 1.0E+10 layer_uno 1.000 0.00 1
p0084          none relative 5.00000000e-04 -1.0E-10 1.0E+10 layer_uno 1.000 0.00 1
p0085          none relative 5.00000000e-04 -1.0E-10 1.0E+10 layer_uno 1.000 0.00 1
p0086          none relative 5.00000000e-04 -1.0E-10 1.0E+10 layer_uno 1.000 0.00 1
p0087          none relative 5.00000000e-04 -1.0E-10 1.0E+10 layer_uno 1.000 0.00 1
p0088          none relative 5.00000000e-04 -1.0E-10 1.0E+10 layer_uno 1.000 0.00 1
p0089          none relative 5.00000000e-04 -1.0E-10 1.0E+10 layer_uno 1.000 0.00 1
p0090          none relative 5.00000000e-04 -1.0E-10 1.0E+10 layer_uno 1.000 0.00 1
p0091          none relative 5.00000000e-04 -1.0E-10 1.0E+10 layer_uno 1.000 0.00 1
p0092          none relative 5.00000000e-04 -1.0E-10 1.0E+10 layer_uno 1.000 0.00 1
p0093          none relative 5.00000000e-04 -1.0E-10 1.0E+10 layer_uno 1.000 0.00 1
p0094          none relative 5.00000000e-04 -1.0E-10 1.0E+10 layer_uno 1.000 0.00 1
p0095          none relative 5.00000000e-04 -1.0E-10 1.0E+10 layer_uno 1.000 0.00 1
p0096          none relative 5.00000000e-04 -1.0E-10 1.0E+10 layer_uno 1.000 0.00 1
p0097          none relative 5.00000000e-04 -1.0E-10 1.0E+10 layer_uno 1.000 0.00 1
p0098          none relative 5.00000000e-04 -1.0E-10 1.0E+10 layer_uno 1.000 0.00 1
p0099          none relative 5.00000000e-04 -1.0E-10 1.0E+10 layer_uno 1.000 0.00 1
p0100          none relative 5.00000000e-04 -1.0E-10 1.0E+10 layer_uno 1.000 0.00 1
p0101          none relative 5.00000000e-04 -1.0E-10 1.0E+10 layer_uno 1.000 0.00 1
p0102          none relative 5.00000000e-04 -1.0E-10 1.0E+10 layer_uno 1.000 0.00 1
p0103          none relative 5.00000000e-04 -1.0E-10 1.0E+10 layer_uno 1.000 0.00 1
p0104          none relative 5.00000000e-04 -1.0E-10 1.0E+10 layer_uno 1.000 0.00 1
p0105          none relative 5.00000000e-04 -1.0E-10 1.0E+10 layer_uno 1.000 0.00 1
p0106          none relative 5.00000000e-04 -1.0E-10 1.0E+10 layer_uno 1.000 0.00 1
p0107          none relative 5.00000000e-04 -1.0E-10 1.0E+10 layer_uno 1.000 0.00 1
p0108          none relative 5.00000000e-04 -1.0E-10 1.0E+10 layer_uno 1.000 0.00 1
p0109          none relative 5.00000000e-04 -1.0E-10 1.0E+10 layer_uno 1.000 0.00 1
p0110          none relative 5.00000000e-04 -1.0E-10 1.0E+10 layer_uno 1.000 0.00 1
p0111          none relative 5.00000000e-04 -1.0E-10 1.0E+10 layer_uno 1.000 0.00 1
p0112          none relative 5.00000000e-04 -1.0E-10 1.0E+10 layer_uno 1.000 0.00 1
p0113          none relative 5.00000000e-04 -1.0E-10 1.0E+10 layer_uno 1.000 0.00 1
p0114          none relative 5.00000000e-04 -1.0E-10 1.0E+10 layer_uno 1.000 0.00 1
p0115          none relative 5.00000000e-04 -1.0E-10 1.0E+10 layer_uno 1.000 0.00 1
p0116          none relative 5.00000000e-04 -1.0E-10 1.0E+10 layer_uno 1.000 0.00 1
p0117          none relative 5.00000000e-04 -1.0E-10 1.0E+10 layer_uno 1.000 0.00 1
p0118          none relative 5.00000000e-04 -1.0E-10 1.0E+10 layer_uno 1.000 0.00 1
p0119          none relative 5.00000000e-04 -1.0E-10 1.0E+10 layer_uno 1.000 0.00 1
p0120          none relative 5.00000000e-04 -1.0E-10 1.0E+10 layer_uno 1.000 0.00 1
p0121          none relative 5.00000000e-04 -1.0E-10 1.0E+10 layer_uno 1.000 0.00 1
p0122          none relative 5.00000000e-04 -1.0E-10 1.0E+10 layer_uno 1.000 0.00 1
p0123          none relative 5.00000000e-04 -1.0E-10 1.0E+10 layer_uno 1.000 0.00 1
p0124          none relative 5.00000000e-04 -1.0E-10 1.0E+10 layer_uno 1.000 0.00 1
p0125          none relative 5.00000000e-04 -1.0E-10 1.0E+10 layer_uno 1.000 0.00 1
p0126          none relative 5.00000000e-04 -1.0E-10 1.0E+10 layer_uno 1.000 0.00 1
p0127          none relative 5.00000000e-04 -1.0E-10 1.0E+10 layer_uno 1.000 0.00 1
p0128          none relative 5.00000000e-04 -1.0E-10 1.0E+10 layer_uno 1.000 0.00 1
p0129          none relative 5.00000000e-04 -1.0E-10 1.0E+10 layer_uno 1.000 0.00 1
p0130          none relative 5.00000000e-04 -1.0E-10 1.0E+10 layer_uno 1.000 0.00 1
p0131          none relative 5.00000000e-04 -1.0E-10 1.0E+10 layer_uno 1.000 0.00 1
p0132          none relative 5.00000000e-04 -1.0E-10 1.0E+10 layer_uno 1.000 0.00 1
p0133          none relative 5.00000000e-04 -1.0E-10 1.0E+10 layer_uno 1.000 0.00 1
p0134          none relative 5.00000000e-04 -1.0E-10 1.0E+10 layer_uno 1.000 0.00 1
p0135          none relative 5.00000000e-04 -1.0E-10 1.0E+10 layer_uno 1.000 0.00 1
p0136          none relative 5.00000000e-04 -1.0E-10 1.0E+10 layer_uno 1.000 0.00 1
p0137          none relative 5.00000000e-04 -1.0E-10 1.0E+10 layer_uno 1.000 0.00 1
p0138          none relative 5.00000000e-04 -1.0E-10 1.0E+10 layer_uno 1.000 0.00 1
p0139          none relative 5.00000000e-04 -1.0E-10 1.0E+10 layer_uno 1.000 0.00 1
p0140          none relative 5.00000000e-04 -1.0E-10 1.0E+10 layer_uno 1.000 0.00 1
p0141          none relative 5.00000000e-04 -1.0E-10 1.0E+10 layer_uno 1.000 0.00 1
p0142          none relative 5.00000000e-04 -1.0E-10 1.0E+10 layer_uno 1.000 0.00 1
p0143          none relative 5.00000000e-04 -1.0E-10 1.0E+10 layer_uno 1.000 0.00 1
p0144          none relative 5.00000000e-04 -1.0E-10 1.0E+10 layer_uno 1.000 0.00 1
p0145          none relative 5.00000000e-04 -1.0E-10 1.0E+10 layer_uno 1.000 0.00 1
p0146          none relative 5.00000000e-04 -1.0E-10 1.0E+10 layer_uno 1.000 0.00 1
p0147          none relative 5.00000000e-04 -1.0E-10 1.0E+10 layer_uno 1.000 0.00 1
p0148          none relative 5.00000000e-04 -1.0E-10 1.0E+10 layer_uno 1.000 0.00 1
p0149          none relative 5.00000000e-04 -1.0E-10 1.0E+10 layer_uno 1.000 0.00 1
p0150          none relative 5.00000000e-04 -1.0E-10 1.0E+10 layer_uno 1.000 0.00 1
p0151          none relative 5.00000000e-04 -1.0E-10 1.0E+10 layer_uno 1.000 0.00 1
p0152          none relative 5.00000000e-04 -1.0E-10 1.0E+10 layer_uno 1.000 0.00 1
p0153          none relative 5.00000000e-04 -1.0E-10 1.0E+10 layer_uno 1.000 0.00 1
p0154          none relative 5.00000000e-04 -1.0E-10 1.0E+10 layer_uno 1.000 0.00 1
p0155          none relative 5.00000000e-04 -1.0E-10 1.0E+10 layer_uno 1.000 0.00 1
p0156          none relative 5.00000000e-04 -1.0E-10 1.0E+10 layer_uno 1.000 0.00 1
p0157          none relative 5.00000000e-04 -1.0E-10 1.0E+10 layer_uno 1.000 0.00 1
p0158          none relative 5.00000000e-04 -1.0E-10 1.0E+10 layer_uno 1.000 0.00 1
p0159          none relative 5.00000000e-04 -1.0E-10 1.0E+10 layer_uno 1.000 0.00 1
p0160          none relative 5.00000000e-04 -1.0E-10 1.0E+10 layer_uno 1.000 0.00 1
p0161          none relative 5.00000000e-04 -1.0E-10 1.0E+10 layer_uno 1.000 0.00 1
p0162          none relative 5.00000000e-04 -1.0E-10 1.0E+10 layer_uno 1.000 0.00 1
p0163          none relative 5.00000000e-04 -1.0E-10 1.0E+10 layer_uno 1.000 0.00 1
p0164          none relative 5.00000000e-04 -1.0E-10 1.0E+10 layer_uno 1.000 0.00 1
p0165          none relative 5.00000000e-04 -1.0E-10 1.0E+10 layer_uno 1.000 0.00 1
p0166          none relative 5.00000000e-04 -1.0E-10 1.0E+10 layer_uno 1.000 0.00 1
p0167          none relative 5.00000000e-04 -1.0E-10 1.0E+10 layer_uno 1.000 0.00 1
p0168          none relative 5.00000000e-04 -1.0E-10 1.0E+10 layer_uno 1.000 0.00 1
p0169          none relative 5.00000000e-04 -1.0E-10 1.0E+10 layer_uno 1.000 0.00 1
p0170          none relative 5.00000000e-04 -1.0E-10 1.0E+10 layer_uno 1.000 0.00 1
p0171          none relative 5.00000000e-04 -1.0E-10 1.0E+10 layer_uno 1.000 0.00 1
p0172          none relative 5.00000000e-04 -1.0E-10 1.0E+10 layer_uno 1.000 0.00 1
p0173          none relative 5.00000000e-04 -1.0E-10 1.0E+10 layer_uno 1.000 0.00 1
p0174          none relative 5.00000000e-04 -1.0E-10 1.0E+10 layer_uno 1.000 0.00 1
p0175          none relative 5.00000000e-04 -1.0E-10 1.0E+10 layer_uno 1.000 0.00 1
p0176          none relative 5.00000000e-04 -1.0E-10 1.0E+10 layer_uno 1.000 0.00 1
p0177          none relative 5.00000000e-04 -1.0E-10 1.0E+10 layer_uno 1.000 0.00 1
p0178          none relative 5.00000000e-04 -1.0E-10 1.0E+10 layer_uno 1.000 0.00 1
p0179          none relative 5.00000000e-04 -1.0E-10 1.0E+10 layer_uno 1.000 0.00 1
p0180          none relative 5.00000000e-04 -1.0E-10 1.0E+10 layer_uno 1.000 0.00 1
p0181          none relative 5.00000000e-04 -1.0E-10 1.0E+10 layer_uno 1.000 0.00 1
p0182          none relative 5.00000000e-04 -1.0E-10 1.0E+10 layer_uno 1.000 0.00 1
p0183          none relative 5.00000000e-04 -1.0E-10 1.0E+10 layer_uno 1.000 0.00 1
p0184          none relative 5.00000000e-04 -1.0E-10 1.0E+10 layer_uno 1.000 0.00 1
p0185          none relative 5.00000000e-04 -1.0E-10 1.0E+10 layer_uno 1.000 0.00 1
p0186          none relative 5.00000000e-04 -1.0E-10 1.0E+10 layer_uno 1.000 0.00 1
p0187          none relative 5.00000000e-04 -1.0E-10 1.0E+10 layer_uno 1.000 0.00 1
p0188          none relative 5.00000000e-04 -1.0E-10 1.0E+10 layer_uno 1.000 0.00 1
p0189          none relative 5.00000000e-04 -1.0E-10 1.0E+10 layer_uno 1.000 0.00 1
p0190          none relative 5.00000000e-04 -1.0E-10 1.0E+10 layer_uno 1.000 0.00 1
p0191          none relative 5.00000000e-04 -1.0E-10 1.0E+10 layer_uno 1.000 0.00 1
p0192          none relative 5.00000000e-04 -1.0E-10 1.0E+10 layer_uno 1.000 0.00 1
p0193          none relative 5.00000000e-04 -1.0E-10 1.0E+10 layer_uno 1.000 0.00 1
p0194          none relative 5.00000000e-04 -1.0E-10 1.0E+10 layer_uno 1.000 0.00 1
p0195          none relative 5.00000000e-04 -1.0E-10 1.0E+10 layer_uno 1.000 0.00 1
p0196          none relative 5.00000000e-04 -1.0E-10 1.0E+10 layer_uno 1.000 0.00 1
p0197          none relative 5.00000000e-04 -1.0E-10 1.0E+10 layer_uno 1.000 0.00 1
p0198          none relative 5.00000000e-04 -1.0E-10 1.0E+10 layer_uno 1.000 0.00 1
p0199          none relative 5.00000000e-04 -1.0E-10 1.0E+10 layer_uno 1.000 0.00 1
p0200          none relative 5.00000000e-04 -1.0E-10 1.0E+10 layer_uno 1.000 0.00 1
p0201          none relative 5.00000000e-04 -1.0E-10 1.0E+10 layer_uno 1.000 0.00 1
p0202          none relative 5.00000000e-04 -1.0E-10 1.0E+10 layer_uno 1.000 0.00 1
p0203          none relative 5.00000000e-04 -1.0E-10 1.0E+10 layer_uno 1.000 0.00 1
p0204          none relative 5.00000000e-04 -1.0E-10 1.0E+10 layer_uno 1.000 0.00 1
p0205          none relative 5.00000000e-04 -1.0E-10 1.0E+10 layer_uno 1.000 0.00 1
p0206          none relative 5.00000000e-04 -1.0E-10 1.0E+10 layer_uno 1.000 0.00 1
p0207          none relative 5.00000000e-04 -1.0E-10 1.0E+10 layer_uno 1.000 0.00 1
p0208          none relative 5.00000000e-04 -1.0E-10 1.0E+10 layer_uno 1.000 0.00 1
p0209          none relative 5.00000000e-04 -1.0E-10 1.0E+10 layer_uno 1.000 0.00 1
p0210          none relative 5.00000000e-04 -1.0E-10 1.0E+10 layer_uno 1.000 0.00 1
p0211          none relative 5.00000000e-04 -1.0E-10 1.0E+10 layer_uno 1.000 0.00 1
p0212          none relative 5.00000000e-04 -1.0E-10 1.0E+10 layer_uno 1.000 0.00 1
p0213          none relative 5.00000000e-04 -1.0E-10 1.0E+10 layer_uno 1.000 0.00 1
p0214          none relative 5.00000000e-04 -1.0E-10 1.0E+10 layer_uno 1.000 0.00 1
p0215          none relative 5.00000000e-04 -1.0E-10 1.0E+10 layer_uno 1.000 0.00 1
p0216          none relative 5.00000000e-04 -1.0E-10 1.0E+10 layer_uno 1.000 0.00 1
p0217          none relative 5.00000000e-04 -1.0E-10 1.0E+10 layer_uno 1.000 0.00 1
p0218          none relative 5.00000000e-04 -1.0E-10 1.0E+10 layer_uno 1.000 0.00 1
p0219          none relative 5.00000000e-04 -1.0E-10 1.0E+10 layer_uno 1.000 0.00 1
p0220          none relative 5.00000000e-04 -1.0E-10 1.0E+10 layer_uno 1.000 0.00 1
p0221          none relative 5.00000000e-04 -1.0E-10 1.0E+10 layer_uno 1.000 0.00 1
p0222          none relative 5.00000000e-04 -1.0E-10 1.0E+10 layer_uno 1.000 0.00 1
p0223          none relative 5.00000000e-04 -1.0E-10 1.0E+10 layer_uno 1.000 0.00 1
p0224          none relative 5.00000000e-04 -1.0E-10 1.0E+10 layer_uno 1.000 0.00 1
p0225          none relative 5.00000000e-04 -1.0E-10 1.0E+10 layer_uno 1.000 0.00 1
p0226          none relative 5.00000000e-04 -1.0E-10 1.0E+10 layer_uno 1.000 0.00 1
p0227          none relative 5.00000000e-04 -1.0E-10 1.0E+10 layer_uno 1.000 0.00 1
p0228          none relative 5.00000000e-04 -1.0E-10 1.0E+10 layer_uno 1.000 0.00 1
p0229          none relative 5.00000000e-04 -1.0E-10 1.0E+10 layer_uno 1.000 0.00 1
p0230          none relative 5.00000000e-04 -1.0E-10 1.0E+10 layer_uno 1.000 0.00 1
p0231          none relative 5.00000000e-04 -1.0E-10 1.0E+10 layer_uno 1.000 0.00 1
p0232          none relative 5.00000000e-04 -1.0E-10 1.0E+10 layer_uno 1.000 0.00 1
p0233          none relative 5.00000000e-04 -1.0E-10 1.0E+10 layer_uno 1.000 0.00 1
p0234          none relative 5.00000000e-04 -1.0E-10 1.0E+10 layer_uno 1.000 0.00 1
p0235          none relative 5.00000000e-04 -1.0E-10 1.0E+10 layer_uno 1.000 0.00 1
p0236          none relative 5.00000000e-04 -1.0E-10 1.0E+10 layer_uno 1.000 0.00 1
p0237          none relative 5.00000000e-04 -1.0E-10 1.0E+10 layer_uno 1.000 0.00 1
p0238          none relative 5.00000000e-04 -1.0E-10 1.0E+10 layer_uno 1.000 0.00 1
p0239          none relative 5.00000000e-04 -1.0E-10 1.0E+10 layer_uno 1.000 0.00 1
p0240          none relative 5.00000000e-04 -1.0E-10 1.0E+10 layer_uno 1.000 0.00 1
p0241          none relative 5.00000000e-04 -1.0E-10 1.0E+10 layer_uno 1.000 0.00 1
p0242          none relative 5.00000000e-04 -1.0E-10 1.0E+10 layer_uno 1.000 0.00 1
p0243          none relative 5.00000000e-04 -1.0E-10 1.0E+10 layer_uno 1.000 0.00 1
p0244          none relative 5.00000000e-04 -1.0E-10 1.0E+10 layer_uno 1.000 0.00 1
p0245          none relative 5.00000000e-04 -1.0E-10 1.0E+10 layer_uno 1.000 0.00 1
p0246          none relative 5.00000000e-04 -1.0E-10 1.0E+10 layer_uno 1.000 0.00 1
p0247          none relative 5.00000000e-04 -1.0E-10 1.0E+10 layer_uno 1.000 0.00 1
p0248          none relative 5.00000000e-04 -1.0E-10 1.0E+10 layer_uno 1.000 0.00 1
p0249          none relative 5.00000000e-04 -1.0E-10 1.0E+10 layer_uno 1.000 0.00 1
p0250          none relative 5.00000000e-04 -1.0E-10 1.0E+10 layer_uno 1.000 0.00 1
p0251          none relative 5.00000000e-04 -1.0E-10 1.0E+10 layer_uno 1.000 0.00 1
p0252          none relative 5.00000000e-04 -1.0E-10 1.0E+10 layer_uno 1.000 0.00 1
p0253          none relative 5.00000000e-04 -1.0E-10 1.0E+10 layer_uno 1.000 0.00 1
p0254          none relative 5.00000000e-04 -1.0E-10 1.0E+10 layer_uno 1.000 0.00 1
p0255          none relative 5.00000000e-04 -1.0E-10 1.0E+10 layer_uno 1.000 0.00 1
p0256          none relative 5.00000000e-04 -1.0E-10 1.0E+10 layer_uno 1.000 0.00 1
p0257          none relative 5.00000000e-04 -1.0E-10 1.0E+10 layer_uno 1.000 0.00 1
p0258          none relative 5.00000000e-04 -1.0E-10 1.0E+10 layer_uno 1.000 0.00 1
p0259          none relative 5.00000000e-04 -1.0E-10 1.0E+10 layer_uno 1.000 0.00 1
p0260          none relative 5.00000000e-04 -1.0E-10 1.0E+10 layer_uno 1.000 0.00 1
p0261          none relative 5.00000000e-04 -1.0E-10 1.0E+10 layer_uno 1.000 0.00 1
p0262          none relative 5.00000000e-04 -1.0E-10 1.0E+10 layer_uno 1.000 0.00 1
p0263          none relative 5.00000000e-04 -1.0E-10 1.0E+10 layer_uno 1.000 0.00 1
p0264          none relative 5.00000000e-04 -1.0E-10 1.0E+10 layer_uno 1.000 0.00 1
p0265          none relative 5.00000000e-04 -1.0E-10 1.0E+10 layer_uno 1.000 0.00 1
p0266          none relative 5.00000000e-04 -1.0E-10 1.0E+10 layer_uno 1.000 0.00 1
p0267          none relative 5.00000000e-04 -1.0E-10 1.0E+10 layer_uno 1.000 0.00 1
p0268          none relative 5.00000000e-04 -1.0E-10 1.0E+10 layer_uno 1.000 0.00 1
p0269          none relative 5.00000000e-04 -1.0E-10 1.0E+10 layer_uno 1.000 0.00 1
p0270          none relative 5.00000000e-04 -1.0E-10 1.0E+10 layer_uno 1.000 0.00 1
p0271          none relative 5.00000000e-04 -1.0E-10 1.0E+10 layer_uno 1.000 0.00 1
p0272          none relative 5.00000000e-04 -1.0E-10 1.0E+10 layer_uno 1.000 0.00 1
p0273          none relative 5.00000000e-04 -1.0E-10 1.0E+10 layer_uno 1.000 0.00 1
p0274          none relative 5.00000000e-04 -1.0E-10 1.0E+10 layer_uno 1.000 0.00 1
p0275          none relative 5.00000000e-04 -1.0E-10 1.0E+10 layer_uno 1.000 0.00 1
p0276          none relative 5.00000000e-04 -1.0E-10 1.0E+10 layer_uno 1.000 0.00 1
p0277          none relative 5.00000000e-04 -1.0E-10 1.0E+10 layer_uno 1.000 0.00 1
p0278          none relative 5.00000000e-04 -1.0E-10 1.0E+10 layer_uno 1.000 0.00 1
p0279          none relative 5.00000000e-04 -1.0E-10 1.0E+10 layer_uno 1.000 0.00 1
p0280          none relative 5.00000000e-04 -1.0E-10 1.0E+10 layer_uno 1.000 0.00 1
p0281          none relative 5.00000000e-04 -1.0E-10 1.0E+10 layer_uno 1.000 0.00 1
p0282          none relative 5.00000000e-04 -1.0E-10 1.0E+10 layer_uno 1.000 0.00 1
p0283          none relative 5.00000000e-04 -1.0E-10 1.0E+10 layer_uno 1.000 0.00 1
p0284          none relative 5.00000000e-04 -1.0E-10 1.0E+10 layer_uno 1.000 0.00 1
p0285          none relative 5.00000000e-04 -1.0E-10 1.0E+10 layer_uno 1.000 0.00 1
p0286          none relative 5.00000000e-04 -1.0E-10 1.0E+10 layer_uno 1.000 0.00 1
p0287          none relative 5.00000000e-04 -1.0E-10 1.0E+10 layer_uno 1.000 0.00 1
p0288          none relative 5.00000000e-04 -1.0E-10 1.0E+10 layer_uno 1.000 0.00 1
p0289          none relative 5.00000000e-04 -1.0E-10 1.0E+10 layer_uno 1.000 0.00 1
p0290          none relative 5.00000000e-04 -1.0E-10 1.0E+10 layer_uno 1.000 0.00 1
p0291          none relative 5.00000000e-04 -1.0E-10 1.0E+10 layer_uno 1.000 0.00 1
p0292          none relative 5.00000000e-04 -1.0E-10 1.0E+10 layer_uno 1.000 0.00 1
p0293          none relative 5.00000000e-04 -1.0E-10 1.0E+10 layer_uno 1.000 0.00 1
p0294          none relative 5.00000000e-04 -1.0E-10 1.0E+10 layer_uno 1.000 0.00 1
p0295          none relative 5.00000000e-04 -1.0E-10 1.0E+10 layer_uno 1.000 0.00 1
p0296          none relative 5.00000000e-04 -1.0E-10 1.0E+10 layer_uno 1.000 0.00 1
p0297          none relative 5.00000000e-04 -1.0E-10 1.0E+10 layer_uno 1.000 0.00 1
p0298          none relative 5.00000000e-04 -1.0E-10 1.0E+10 layer_uno 1.000 0.00 1
p0299          none relative 5.00000000e-04 -1.0E-10 1.0E+10 layer_uno 1.000 0.00 1
p0300          none relative 5.00000000e-04 -1.0E-10 1.0E+10 layer_uno 1.000 0.00 1
p0301          none relative 5.00000000e-04 -1.0E-10 1.0E+10 layer_uno 1.000 0.00 1
p0302          none relative 5.00000000e-04 -1.0E-10 1.0E+10 layer_uno 1.000 0.00 1
p0303          none relative 5.00000000e-04 -1.0E-10 1.0E+10 layer_uno 1.000 0.00 1
p0304          none relative 5.00000000e-04 -1.0E-10 1.0E+10 layer_uno 1.000 0.00 1
p0305          none relative 5.00000000e-04 -1.0E-10 1.0E+10 layer_uno 1.000 0.00 1
p0306          none relative 5.00000000e-04 -1.0E-10 1.0E+10 layer_uno 1.000 0.00 1
p0307          none relative 5.00000000e-04 -1.0E-10 1.0E+10 layer_uno 1.000 0.00 1
p0308          none relative 5.00000000e-04 -1.0E-10 1.0E+10 layer_uno 1.000 0.00 1
p0309          none relative 5.00000000e-04 -1.0E-10 1.0E+10 layer_uno 1.000 0.00 1
p0310          none relative 5.00000000e-04 -1.0E-10 1.0E+10 layer_uno 1.000 0.00 1
p0311          none relative 5.00000000e-04 -1.0E-10 1.0E+10 layer_uno 1.000 0.00 1
p0312          none relative 5.00000000e-04 -1.0E-10 1.0E+10 layer_uno 1.000 0.00 1
p0313          none relative 5.00000000e-04 -1.0E-10 1.0E+10 layer_uno 1.000 0.00 1
p0314          none relative 5.00000000e-04 -1.0E-10 1.0E+10 layer_uno 1.000 0.00 1
p0315          none relative 5.00000000e-04 -1.0E-10 1.0E+10 layer_uno 1.000 0.00 1
p0316          none relative 5.00000000e-04 -1.0E-10 1.0E+10 layer_uno 1.000 0.00 1
p0317          none relative 5.00000000e-04 -1.0E-10 1.0E+10 layer_uno 1.000 0.00 1
p0318          none relative 5.00000000e-04 -1.0E-10 1.0E+10 layer_uno 1.000 0.00 1
p0319          none relative 5.00000000e-04 -1.0E-10 1.0E+10 layer_uno 1.000 0.00 1
p0320          none relative 5.00000000e-04 -1.0E-10 1.0E+10 layer_uno 1.000 0.00 1
p0321          none relative 5.00000000e-04 -1.0E-10 1.0E+10 layer_uno 1.000 0.00 1
p0322          none relative 5.00000000e-04 -1.0E-10 1.0E+10 layer_uno 1.000 0.00 1
p0323          none relative 5.00000000e-04 -1.0E-10 1.0E+10 layer_uno 1.000 0.00 1
p0324          none relative 5.00000000e-04 -1.0E-10 1.0E+10 layer_uno 1.000 0.00 1
p0325          none relative 5.00000000e-04 -1.0E-10 1.0E+10 layer_uno 1.000 0.00 1
p0326          none relative 5.00000000e-04 -1.0E-10 1.0E+10 layer_uno 1.000 0.00 1
p0327          none relative 5.00000000e-04 -1.0E-10 1.0E+10 layer_uno 1.000 0.00 1
p0328          none relative 5.00000000e-04 -1.0E-10 1.0E+10 layer_uno 1.000 0.00 1
p0329          none relative 5.00000000e-04 -1.0E-10 1.0E+10 layer_uno 1.000 0.00 1
p0330          none relative 5.00000000e-04 -1.0E-10 1.0E+10 layer_uno 1.000 0.00 1
p0331          none relative 5.00000000e-04 -1.0E-10 1.0E+10 layer_uno 1.000 0.00 1
p0332          none relative 5.00000000e-04 -1.0E-10 1.0E+10 layer_uno 1.000 0.00 1
p0333          none relative 5.00000000e-04 -1.0E-10 1.0E+10 layer_uno 1.000 0.00 1
p0334          none relative 5.00000000e-04 -1.0E-10 1.0E+10 layer_uno 1.000 0.00 1
p0335          none relative 5.00000000e-04 -1.0E-10 1.0E+10 layer_uno 1.000 0.00 1
p0336          none relative 5.00000000e-04 -1.0E-10 1.0E+10 layer_uno 1.000 0.00 1
p0337          none relative 5.00000000e-04 -1.0E-10 1.0E+10 layer_uno 1.000 0.00 1
p0338          none relative 5.00000000e-04 -1.0E-10 1.0E+10 layer_uno 1.000 0.00 1
p0339          none relative 5.00000000e-04 -1.0E-10 1.0E+10 layer_uno 1.000 0.00 1
p0340          none relative 5.00000000e-04 -1.0E-10 1.0E+10 layer_uno 1.000 0.00 1
p0341          none relative 5.00000000e-04 -1.0E-10 1.0E+10 layer_uno 1.000 0.00 1
p0342          none relative 5.00000000e-04 -1.0E-10 1.0E+10 layer_uno 1.000 0.00 1
p0343          none relative 5.00000000e-04 -1.0E-10 1.0E+10 layer_uno 1.000 0.00 1
p0344          none relative 5.00000000e-04 -1.0E-10 1.0E+10 layer_uno 1.000 0.00 1
p0345          none relative 5.00000000e-04 -1.0E-10 1.0E+10 layer_uno 1.000 0.00 1
p0346          none relative 5.00000000e-04 -1.0E-10 1.0E+10 layer_uno 1.000 0.00 1
p0347          none relative 5.00000000e-04 -1.0E-10 1.0E+10 layer_uno 1.000 0.00 1