# MODFLOW2000 Zone File
# Groundwater Vistas writes all zones regardless of whether
# they are being used.  These zones include:
#     kxzone##, kzzone##, szone##, rzone, and etzone, where
#     ## is the layer number
  2
kxzone1
        40         1(50I4)                      -1     K Zones for Layer 1
 267 345 343 349 285 313 350 324 148 141 151 159  66   7  25  20  14   8 120  86 155
 289 291 288 282 212 376 328 269 163  72 191 152  62  18  12  21   2  15  35  85 247
 219 294 265 320 206 375 250 108  98  87 193  97  40  16  77  48  56 105 124 169 380
 237 238 214 166 179 216 134  68 133  84 143 121  23  17  58  42  78 107  95 182 390
 301 327 283 280 278 210  89  94 118  32  37  41   1   5  57   4   9  28 173 161 368
 322 277 235 230 381 326 201 244 263 109 181 150  26  13  75  36  44  96 226 209 331
 329 353 330 348 274 302 146 334 321 314 370 208 106 165 129 147 113 142 318 373 422
 364 412 332 312 306 361 339 242 338 372 287 149 115 119  92 184 213 207 382 360 386
 404 434 431 409 424 413 425 178 197 310 354 139 175 170  88 222 270 194 405 383 419
 366 336 417 403 362 415 416 319 251 406 358 123 116 100  11 202  71  82 257 245 308
 323 420 385 344 352 286 325 211 241 374 187 128  47 156 154 239 240 290 357 388 398
 369 400 367 397 438 435 355 261 342 273 103 132  51 117 223 229 174 164 252 356 315
 340 396 433 429 441 399 410 311 304 243 111  63  53 177 264 180  99 160 205 227 299
 341 391 387 439 440 384 394 305 218 188 102  54  31  49 131 196 104 158 295 275 234
 393 436 437 430 432 296 254 215 189 126  29  55  22  80  64  91  61 153 249 337 279
 371 392 377 297 316 195 200 172 168 101  65  33  10  45  73 138  60  79 271 335 307
 401 426 423 333 395 298 266 255 185  76 114  70  19   3   6  39  52  46 127 260 221
 224 300 427 276 351 346 232 258 204 220 171 122  50  83  34  69  93  27 198 317 130
 363 379 428 365 408 389 347 407 190 186 140 136  43  24  30  67 192  59 110 256 183
 411 418 402 281 246 253 217 292 203 259 225 309 145 112 135  90 199 157 137 233 268
 414 421 378 359 284 236 303 293 167 272 228 231  81  74 125  38 176 162 248 262 144
szone1
         0         1(50I3)                      -1     S Zones for Layer 1
