# MODFLOW2005 Basic Package
#MODFLOW Data Set Created by Groundwater Vistas
#   
SHOWPROGRESS
         1         1(25I3)                      -1     IBOUND Layer   1
 -1 -1 -1 -1 -1 -1 -1 -1 -1 -1 -1 -1 -1 -1 -1 -1 -1 -1 -1 -1 -1
 -1  1  1  1  1  1  1  1  1  1  1  1  1  1  1  1  1  1  1  1 -1
 -1  1  1  1  1  1  1  1  1  1  1  1  1  1  1  1  1  1  1  1 -1
 -1  1  1  1  1  1  1  1  1  1  1  1  1  1  1  1  1  1  1  1 -1
 -1  1  1  1  1  1  1  1  1  1  1  1  1  1  1  1  1  1  1  1 -1
 -1  1  1  1  1  1  1  1  1  1  1  1  1  1  1  1  1  1  1  1 -1
 -1  1  1  1  1  1  1  1  1  1  1  1  1  1  1  1  1  1  1  1 -1
 -1  1  1  1  1  1  1  1  1  1  1  1  1  1  1  1  1  1  1  1 -1
 -1  1  1  1  1  1  1  1  1  1  1  1  1  1  1  1  1  1  1  1 -1
 -1  1  1  1  1  1  1  1  1  1  1  1  1  1  1  1  1  1  1  1 -1
 -1  1  1  1  1  1  1  1  1  1  1  1  1  1  1  1  1  1  1  1 -1
 -1  1  1  1  1  1  1  1  1  1  1  1  1  1  1  1  1  1  1  1 -1
 -1  1  1  1  1  1  1  1  1  1  1  1  1  1  1  1  1  1  1  1 -1
 -1  1  1  1  1  1  1  1  1  1  1  1  1  1  1  1  1  1  1  1 -1
 -1  1  1  1  1  1  1  1  1  1  1  1  1  1  1  1  1  1  1  1 -1
 -1  1  1  1  1  1  1  1  1  1  1  1  1  1  1  1  1  1  1  1 -1
 -1  1  1  1  1  1  1  1  1  1  1  1  1  1  1  1  1  1  1  1 -1
 -1  1  1  1  1  1  1  1  1  1  1  1  1  1  1  1  1  1  1  1 -1
 -1  1  1  1  1  1  1  1  1  1  1  1  1  1  1  1  1  1  1  1 -1
 -1  1  1  1  1  1  1  1  1  1  1  1  1  1  1  1  1  1  1  1 -1
 -1 -1 -1 -1 -1 -1 -1 -1 -1 -1 -1 -1 -1 -1 -1 -1 -1 -1 -1 -1 -1
9.9900e+02
         1     1.000(10e12.4)                   -1     STARTING HEADS Layer   1
  3.7837e+01  3.7675e+01  3.7352e+01  3.7029e+01  3.6706e+01  3.6383e+01  3.6060e+01  3.5736e+01  3.5413e+01  3.5090e+01
  3.4767e+01  3.4444e+01  3.4121e+01  3.3798e+01  3.3475e+01  3.3152e+01  3.2829e+01  3.2506e+01  3.2182e+01  3.1859e+01
  3.1513e+01
  3.7733e+01  2.0000e+01  2.0000e+01  2.0000e+01  2.0000e+01  2.0000e+01  2.0000e+01  2.0000e+01  2.0000e+01  2.0000e+01
  2.0000e+01  2.0000e+01  2.0000e+01  2.0000e+01  2.0000e+01  2.0000e+01  2.0000e+01  2.0000e+01  2.0000e+01  2.0000e+01
  3.1173e+01
  3.7406e+01  2.0000e+01  2.0000e+01  2.0000e+01  2.0000e+01  2.0000e+01  2.0000e+01  2.0000e+01  2.0000e+01  2.0000e+01
  2.0000e+01  2.0000e+01  2.0000e+01  2.0000e+01  2.0000e+01  2.0000e+01  2.0000e+01  2.0000e+01  2.0000e+01  2.0000e+01
  3.0849e+01
  3.7079e+01  2.0000e+01  2.0000e+01  2.0000e+01  2.0000e+01  2.0000e+01  2.0000e+01  2.0000e+01  2.0000e+01  2.0000e+01
  2.0000e+01  2.0000e+01  2.0000e+01  2.0000e+01  2.0000e+01  2.0000e+01  2.0000e+01  2.0000e+01  2.0000e+01  2.0000e+01
  3.0526e+01
  3.6752e+01  2.0000e+01  2.0000e+01  2.0000e+01  2.0000e+01  2.0000e+01  2.0000e+01  2.0000e+01  2.0000e+01  2.0000e+01
  2.0000e+01  2.0000e+01  2.0000e+01  2.0000e+01  2.0000e+01  2.0000e+01  2.0000e+01  2.0000e+01  2.0000e+01  2.0000e+01
  3.0203e+01
  3.6425e+01  2.0000e+01  2.0000e+01  2.0000e+01  2.0000e+01  2.0000e+01  2.0000e+01  2.0000e+01  2.0000e+01  2.0000e+01
  2.0000e+01  2.0000e+01  2.0000e+01  2.0000e+01  2.0000e+01  2.0000e+01  2.0000e+01  2.0000e+01  2.0000e+01  2.0000e+01
  2.9880e+01
  3.6097e+01  2.0000e+01  2.0000e+01  2.0000e+01  2.0000e+01  2.0000e+01  2.0000e+01  2.0000e+01  2.0000e+01  2.0000e+01
  2.0000e+01  2.0000e+01  2.0000e+01  2.0000e+01  2.0000e+01  2.0000e+01  2.0000e+01  2.0000e+01  2.0000e+01  2.0000e+01
  2.9557e+01
  3.5770e+01  2.0000e+01  2.0000e+01  2.0000e+01  2.0000e+01  2.0000e+01  2.0000e+01  2.0000e+01  2.0000e+01  2.0000e+01
  2.0000e+01  2.0000e+01  2.0000e+01  2.0000e+01  2.0000e+01  2.0000e+01  2.0000e+01  2.0000e+01  2.0000e+01  2.0000e+01
  2.9234e+01
  3.5443e+01  2.0000e+01  2.0000e+01  2.0000e+01  2.0000e+01  2.0000e+01  2.0000e+01  2.0000e+01  2.0000e+01  2.0000e+01
  2.0000e+01  2.0000e+01  2.0000e+01  2.0000e+01  2.0000e+01  2.0000e+01  2.0000e+01  2.0000e+01  2.0000e+01  2.0000e+01
  2.8911e+01
  3.5116e+01  2.0000e+01  2.0000e+01  2.0000e+01  2.0000e+01  2.0000e+01  2.0000e+01  2.0000e+01  2.0000e+01  2.0000e+01
  2.0000e+01  2.0000e+01  2.0000e+01  2.0000e+01  2.0000e+01  2.0000e+01  2.0000e+01  2.0000e+01  2.0000e+01  2.0000e+01
  2.8588e+01
  3.4789e+01  2.0000e+01  2.0000e+01  2.0000e+01  2.0000e+01  2.0000e+01  2.0000e+01  2.0000e+01  2.0000e+01  2.0000e+01
  2.0000e+01  2.0000e+01  2.0000e+01  2.0000e+01  2.0000e+01  2.0000e+01  2.0000e+01  2.0000e+01  2.0000e+01  2.0000e+01
  2.8265e+01
  3.4461e+01  2.0000e+01  2.0000e+01  2.0000e+01  2.0000e+01  2.0000e+01  2.0000e+01  2.0000e+01  2.0000e+01  2.0000e+01
  2.0000e+01  2.0000e+01  2.0000e+01  2.0000e+01  2.0000e+01  2.0000e+01  2.0000e+01  2.0000e+01  2.0000e+01  2.0000e+01
  2.7942e+01
  3.4134e+01  2.0000e+01  2.0000e+01  2.0000e+01  2.0000e+01  2.0000e+01  2.0000e+01  2.0000e+01  2.0000e+01  2.0000e+01
  2.0000e+01  2.0000e+01  2.0000e+01  2.0000e+01  2.0000e+01  2.0000e+01  2.0000e+01  2.0000e+01  2.0000e+01  2.0000e+01
  2.7618e+01
  3.3807e+01  2.0000e+01  2.0000e+01  2.0000e+01  2.0000e+01  2.0000e+01  2.0000e+01  2.0000e+01  2.0000e+01  2.0000e+01
  2.0000e+01  2.0000e+01  2.0000e+01  2.0000e+01  2.0000e+01  2.0000e+01  2.0000e+01  2.0000e+01  2.0000e+01  2.0000e+01
  2.7295e+01
  3.3480e+01  2.0000e+01  2.0000e+01  2.0000e+01  2.0000e+01  2.0000e+01  2.0000e+01  2.0000e+01  2.0000e+01  2.0000e+01
  2.0000e+01  2.0000e+01  2.0000e+01  2.0000e+01  2.0000e+01  2.0000e+01  2.0000e+01  2.0000e+01  2.0000e+01  2.0000e+01
  2.6972e+01
  3.3153e+01  2.0000e+01  2.0000e+01  2.0000e+01  2.0000e+01  2.0000e+01  2.0000e+01  2.0000e+01  2.0000e+01  2.0000e+01
  2.0000e+01  2.0000e+01  2.0000e+01  2.0000e+01  2.0000e+01  2.0000e+01  2.0000e+01  2.0000e+01  2.0000e+01  2.0000e+01
  2.6649e+01
  3.2825e+01  2.0000e+01  2.0000e+01  2.0000e+01  2.0000e+01  2.0000e+01  2.0000e+01  2.0000e+01  2.0000e+01  2.0000e+01
  2.0000e+01  2.0000e+01  2.0000e+01  2.0000e+01  2.0000e+01  2.0000e+01  2.0000e+01  2.0000e+01  2.0000e+01  2.0000e+01
  2.6326e+01
  3.2498e+01  2.0000e+01  2.0000e+01  2.0000e+01  2.0000e+01  2.0000e+01  2.0000e+01  2.0000e+01  2.0000e+01  2.0000e+01
  2.0000e+01  2.0000e+01  2.0000e+01  2.0000e+01  2.0000e+01  2.0000e+01  2.0000e+01  2.0000e+01  2.0000e+01  2.0000e+01
  2.6003e+01
  3.2171e+01  2.0000e+01  2.0000e+01  2.0000e+01  2.0000e+01  2.0000e+01  2.0000e+01  2.0000e+01  2.0000e+01  2.0000e+01
  2.0000e+01  2.0000e+01  2.0000e+01  2.0000e+01  2.0000e+01  2.0000e+01  2.0000e+01  2.0000e+01  2.0000e+01  2.0000e+01
  2.5680e+01
  3.1844e+01  2.0000e+01  2.0000e+01  2.0000e+01  2.0000e+01  2.0000e+01  2.0000e+01  2.0000e+01  2.0000e+01  2.0000e+01
  2.0000e+01  2.0000e+01  2.0000e+01  2.0000e+01  2.0000e+01  2.0000e+01  2.0000e+01  2.0000e+01  2.0000e+01  2.0000e+01
  2.5357e+01
  3.1552e+01  3.1236e+01  3.0909e+01  3.0582e+01  3.0255e+01  2.9927e+01  2.9600e+01  2.9273e+01  2.8946e+01  2.8618e+01
  2.8291e+01  2.7964e+01  2.7637e+01  2.7309e+01  2.6982e+01  2.6655e+01  2.6328e+01  2.6001e+01  2.5673e+01  2.5346e+01
  2.5098e+01
