# MODFLOW2000 Layer Property Flow (LPF) Package
        50  -1.000000e+030         0
  1
  0
  1.000000e+000
 0
 0
        11     1.000(10e12.4)                   -1     HYDRAULIC CONDUCTIVITY Layer   1
  2.2969e-03  4.3721e-03  4.3671e-03  4.5404e-03  2.6809e-03  3.5899e-03  4.5636e-03  3.8387e-03  8.7025e-04  8.0135e-04
  8.8892e-04  9.6102e-04  3.3326e-04  1.0852e-04  1.7031e-04  1.5879e-04  1.3917e-04  1.2150e-04  6.8127e-04  4.8675e-04
  9.1829e-04
  2.7633e-03  2.8355e-03  2.7244e-03  2.6560e-03  1.4217e-03  5.6907e-03  3.9933e-03  2.3350e-03  9.7802e-04  3.6414e-04
  1.1901e-03  8.9098e-04  3.2445e-04  1.5744e-04  1.3335e-04  1.5974e-04  7.3817e-05  1.4224e-04  2.3395e-04  4.6289e-04
  1.9665e-03
  1.5350e-03  2.9370e-03  2.2683e-03  3.7619e-03  1.3594e-03  5.6817e-03  2.0271e-03  6.4112e-04  5.3633e-04  4.8784e-04
  1.2166e-03  5.3397e-04  2.4788e-04  1.4494e-04  4.0943e-04  2.7942e-04  3.1098e-04  5.9206e-04  6.9163e-04  1.0117e-03
  6.2710e-03
  1.8234e-03  1.8353e-03  1.4400e-03  1.0072e-03  1.0700e-03  1.4564e-03  7.5445e-04  3.4326e-04  7.3472e-04  4.5893e-04
  8.1221e-04  6.9083e-04  1.6592e-04  1.5318e-04  3.1345e-04  2.5207e-04  4.1997e-04  6.1821e-04  5.2198e-04  1.0809e-03
  6.9308e-03
  3.1322e-03  3.9751e-03  2.6690e-03  2.6019e-03  2.5775e-03  1.4054e-03  4.9392e-04  5.1828e-04  6.7784e-04  2.0802e-04
  2.4292e-04  2.4841e-04  6.0682e-05  9.4240e-05  3.1127e-04  8.1977e-05  1.2481e-04  1.7665e-04  1.0233e-03  9.6858e-04
  5.2562e-03
  3.8097e-03  2.5725e-03  1.8015e-03  1.7140e-03  6.2801e-03  3.9706e-03  1.3137e-03  1.9428e-03  2.2357e-03  6.4442e-04
  1.0786e-03  8.8575e-04  1.7072e-04  1.3408e-04  3.7795e-04  2.4283e-04  2.5465e-04  5.3271e-04  1.6154e-03  1.3932e-03
  4.0497e-03
  4.0085e-03  4.6461e-03  4.0300e-03  4.5075e-03  2.4529e-03  3.1852e-03  8.3018e-04  4.1575e-03  3.7964e-03  3.6125e-03
  5.4138e-03  1.3796e-03  6.0407e-04  1.0037e-03  7.2585e-04  8.4388e-04  6.6031e-04  8.0949e-04  3.7163e-03  5.5580e-03
  1.0515e-02
  5.2222e-03  9.3230e-03  4.1380e-03  3.5839e-03  3.4862e-03  5.0035e-03  4.2469e-03  1.9139e-03  4.2394e-03  5.5267e-03
  2.7229e-03  8.7111e-04  6.6653e-04  6.7995e-04  5.0344e-04  1.1022e-03  1.4334e-03  1.3736e-03  6.3572e-03  4.9014e-03
  6.8024e-03
  8.5664e-03  1.3219e-02  1.2366e-02  8.8072e-03  1.1261e-02  9.5330e-03  1.1332e-02  1.0603e-03  1.2430e-03  3.5622e-03
  4.6640e-03  7.9362e-04  1.0275e-03  1.0126e-03  4.9305e-04  1.5736e-03  2.3416e-03  1.2260e-03  8.5766e-03  6.4297e-03
  1.0417e-02
  5.2454e-03  4.1596e-03  1.0353e-02  8.4044e-03  5.0823e-03  9.9923e-03  1.0104e-02  3.7535e-03  2.0332e-03  8.6155e-03
  4.8690e-03  6.9154e-04  6.7259e-04  5.6381e-04  1.3230e-04  1.3211e-03  3.5610e-04  4.3437e-04  2.1265e-03  1.9479e-03
  3.5347e-03
  3.8294e-03  1.0420e-02  6.7299e-03  4.3679e-03  4.6417e-03  2.6870e-03  3.8896e-03  1.4172e-03  1.8936e-03  5.6098e-03
  1.1175e-03  7.1806e-04  2.7420e-04  9.2119e-04  9.1308e-04  1.8555e-03  1.8728e-03  2.7769e-03  4.8689e-03  6.8458e-03
  7.7857e-03
  5.3216e-03  8.1598e-03  5.2494e-03  7.7016e-03  2.2595e-02  1.3392e-02  4.6799e-03  2.2242e-03  4.3471e-03  2.4444e-03
  5.8233e-04  7.3024e-04  2.9228e-04  6.7458e-04  1.5797e-03  1.7096e-03  1.0249e-03  9.8709e-04  2.0499e-03  4.7706e-03
  3.6179e-03
  4.2600e-03  7.2802e-03  1.3004e-02  1.2234e-02  4.8002e-02  8.0069e-03  8.9492e-03  3.5666e-03  3.3407e-03  1.9246e-03
  6.4837e-04  3.2739e-04  2.9513e-04  1.0594e-03  2.2416e-03  1.0753e-03  5.5839e-04  9.6652e-04  1.3463e-03  1.6685e-03
  3.0322e-03
  4.3279e-03  6.9591e-03  6.8422e-03  2.6432e-02  3.7143e-02  6.6126e-03  7.2633e-03  3.4464e-03  1.4845e-03  1.1378e-03
  5.8038e-04  2.9592e-04  2.0355e-04  2.9007e-04  7.2880e-04  1.2380e-03  5.8250e-04  9.4462e-04  2.9500e-03  2.4727e-03
  1.7942e-03
  7.2456e-03  1.3704e-02  1.9100e-02  1.2285e-02  1.2415e-02  2.9504e-03  2.0605e-03  1.4529e-03  1.1735e-03  7.1221e-04
  1.9044e-04  3.0624e-04  1.6001e-04  4.2803e-04  3.2950e-04  4.9949e-04  3.2214e-04  9.1055e-04  2.0208e-03  4.2215e-03
  2.5843e-03
  5.4273e-03  7.0807e-03  5.7395e-03  2.9532e-03  3.6764e-03  1.2380e-03  1.3096e-03  1.0182e-03  1.0106e-03  5.7563e-04
  3.3288e-04  2.1133e-04  1.3021e-04  2.5839e-04  3.6720e-04  7.8983e-04  3.1966e-04  4.2154e-04  2.3567e-03  4.1580e-03
  3.5031e-03
  8.1937e-03  1.1434e-02  1.0929e-02  4.1543e-03  7.2788e-03  2.9807e-03  2.2908e-03  2.0948e-03  1.1085e-03  3.7947e-04
  6.6087e-04  3.4802e-04  1.5832e-04  7.6490e-05  9.4995e-05  2.4677e-04  2.9313e-04  2.6956e-04  7.1799e-04  2.1817e-03
  1.5594e-03
  1.5882e-03  3.1258e-03  1.2020e-02  2.5302e-03  4.5760e-03  4.3990e-03  1.7421e-03  2.1464e-03  1.3347e-03  1.5455e-03
  1.0130e-03  6.9137e-04  2.9131e-04  4.4535e-04  2.2304e-04  3.4744e-04  5.0518e-04  1.7430e-04  1.2529e-03  3.6790e-03
  7.2674e-04
  5.1721e-03  6.2647e-03  1.2063e-02  5.2375e-03  8.7216e-03  6.8999e-03  4.3993e-03  8.6446e-03  1.1846e-03  1.1114e-03
  8.0029e-04  7.7002e-04  2.5381e-04  1.6947e-04  1.9621e-04  3.3859e-04  1.2153e-03  3.1812e-04  6.4469e-04  2.1231e-03
  1.0917e-03
  9.0296e-03  1.0357e-02  8.2788e-03  2.6195e-03  1.9485e-03  2.0570e-03  1.4657e-03  2.8893e-03  1.3254e-03  2.1503e-03
  1.5913e-03  3.5403e-03  8.2837e-04  6.5570e-04  7.6017e-04  4.9805e-04  1.2628e-03  9.4413e-04  7.7496e-04  1.7876e-03
  2.3051e-03
  9.9029e-03  1.0482e-02  5.9746e-03  4.9002e-03  2.6794e-03  1.8139e-03  3.2434e-03  2.8971e-03  1.0099e-03  2.3624e-03
  1.6915e-03  1.7196e-03  4.2915e-04  3.7775e-04  7.0795e-04  2.4597e-04  1.0355e-03  9.7749e-04  1.9719e-03  2.2340e-03
  8.1230e-04
        11     1.000(10e12.4)                   -1     VERTICAL HYDRAULIC CONDUCTIVITY Layer   1
  2.2969e-03  4.3721e-03  4.3671e-03  4.5404e-03  2.6809e-03  3.5899e-03  4.5636e-03  3.8387e-03  8.7025e-04  8.0135e-04
  8.8892e-04  9.6102e-04  3.3326e-04  1.0852e-04  1.7031e-04  1.5879e-04  1.3917e-04  1.2150e-04  6.8127e-04  4.8675e-04
  9.1829e-04
  2.7633e-03  2.8355e-03  2.7244e-03  2.6560e-03  1.4217e-03  5.6907e-03  3.9933e-03  2.3350e-03  9.7802e-04  3.6414e-04
  1.1901e-03  8.9098e-04  3.2445e-04  1.5744e-04  1.3335e-04  1.5974e-04  7.3817e-05  1.4224e-04  2.3395e-04  4.6289e-04
  1.9665e-03
  1.5350e-03  2.9370e-03  2.2683e-03  3.7619e-03  1.3594e-03  5.6817e-03  2.0271e-03  6.4112e-04  5.3633e-04  4.8784e-04
  1.2166e-03  5.3397e-04  2.4788e-04  1.4494e-04  4.0943e-04  2.7942e-04  3.1098e-04  5.9206e-04  6.9163e-04  1.0117e-03
  6.2710e-03
  1.8234e-03  1.8353e-03  1.4400e-03  1.0072e-03  1.0700e-03  1.4564e-03  7.5445e-04  3.4326e-04  7.3472e-04  4.5893e-04
  8.1221e-04  6.9083e-04  1.6592e-04  1.5318e-04  3.1345e-04  2.5207e-04  4.1997e-04  6.1821e-04  5.2198e-04  1.0809e-03
  6.9308e-03
  3.1322e-03  3.9751e-03  2.6690e-03  2.6019e-03  2.5775e-03  1.4054e-03  4.9392e-04  5.1828e-04  6.7784e-04  2.0802e-04
  2.4292e-04  2.4841e-04  6.0682e-05  9.4240e-05  3.1127e-04  8.1977e-05  1.2481e-04  1.7665e-04  1.0233e-03  9.6858e-04
  5.2562e-03
  3.8097e-03  2.5725e-03  1.8015e-03  1.7140e-03  6.2801e-03  3.9706e-03  1.3137e-03  1.9428e-03  2.2357e-03  6.4442e-04
  1.0786e-03  8.8575e-04  1.7072e-04  1.3408e-04  3.7795e-04  2.4283e-04  2.5465e-04  5.3271e-04  1.6154e-03  1.3932e-03
  4.0497e-03
  4.0085e-03  4.6461e-03  4.0300e-03  4.5075e-03  2.4529e-03  3.1852e-03  8.3018e-04  4.1575e-03  3.7964e-03  3.6125e-03
  5.4138e-03  1.3796e-03  6.0407e-04  1.0037e-03  7.2585e-04  8.4388e-04  6.6031e-04  8.0949e-04  3.7163e-03  5.5580e-03
  1.0515e-02
  5.2222e-03  9.3230e-03  4.1380e-03  3.5839e-03  3.4862e-03  5.0035e-03  4.2469e-03  1.9139e-03  4.2394e-03  5.5267e-03
  2.7229e-03  8.7111e-04  6.6653e-04  6.7995e-04  5.0344e-04  1.1022e-03  1.4334e-03  1.3736e-03  6.3572e-03  4.9014e-03
  6.8024e-03
  8.5664e-03  1.3219e-02  1.2366e-02  8.8072e-03  1.1261e-02  9.5330e-03  1.1332e-02  1.0603e-03  1.2430e-03  3.5622e-03
  4.6640e-03  7.9362e-04  1.0275e-03  1.0126e-03  4.9305e-04  1.5736e-03  2.3416e-03  1.2260e-03  8.5766e-03  6.4297e-03
  1.0417e-02
  5.2454e-03  4.1596e-03  1.0353e-02  8.4044e-03  5.0823e-03  9.9923e-03  1.0104e-02  3.7535e-03  2.0332e-03  8.6155e-03
  4.8690e-03  6.9154e-04  6.7259e-04  5.6381e-04  1.3230e-04  1.3211e-03  3.5610e-04  4.3437e-04  2.1265e-03  1.9479e-03
  3.5347e-03
  3.8294e-03  1.0420e-02  6.7299e-03  4.3679e-03  4.6417e-03  2.6870e-03  3.8896e-03  1.4172e-03  1.8936e-03  5.6098e-03
  1.1175e-03  7.1806e-04  2.7420e-04  9.2119e-04  9.1308e-04  1.8555e-03  1.8728e-03  2.7769e-03  4.8689e-03  6.8458e-03
  7.7857e-03
  5.3216e-03  8.1598e-03  5.2494e-03  7.7016e-03  2.2595e-02  1.3392e-02  4.6799e-03  2.2242e-03  4.3471e-03  2.4444e-03
  5.8233e-04  7.3024e-04  2.9228e-04  6.7458e-04  1.5797e-03  1.7096e-03  1.0249e-03  9.8709e-04  2.0499e-03  4.7706e-03
  3.6179e-03
  4.2600e-03  7.2802e-03  1.3004e-02  1.2234e-02  4.8002e-02  8.0069e-03  8.9492e-03  3.5666e-03  3.3407e-03  1.9246e-03
  6.4837e-04  3.2739e-04  2.9513e-04  1.0594e-03  2.2416e-03  1.0753e-03  5.5839e-04  9.6652e-04  1.3463e-03  1.6685e-03
  3.0322e-03
  4.3279e-03  6.9591e-03  6.8422e-03  2.6432e-02  3.7143e-02  6.6126e-03  7.2633e-03  3.4464e-03  1.4845e-03  1.1378e-03
  5.8038e-04  2.9592e-04  2.0355e-04  2.9007e-04  7.2880e-04  1.2380e-03  5.8250e-04  9.4462e-04  2.9500e-03  2.4727e-03
  1.7942e-03
  7.2456e-03  1.3704e-02  1.9100e-02  1.2285e-02  1.2415e-02  2.9504e-03  2.0605e-03  1.4529e-03  1.1735e-03  7.1221e-04
  1.9044e-04  3.0624e-04  1.6001e-04  4.2803e-04  3.2950e-04  4.9949e-04  3.2214e-04  9.1055e-04  2.0208e-03  4.2215e-03
  2.5843e-03
  5.4273e-03  7.0807e-03  5.7395e-03  2.9532e-03  3.6764e-03  1.2380e-03  1.3096e-03  1.0182e-03  1.0106e-03  5.7563e-04
  3.3288e-04  2.1133e-04  1.3021e-04  2.5839e-04  3.6720e-04  7.8983e-04  3.1966e-04  4.2154e-04  2.3567e-03  4.1580e-03
  3.5031e-03
  8.1937e-03  1.1434e-02  1.0929e-02  4.1543e-03  7.2788e-03  2.9807e-03  2.2908e-03  2.0948e-03  1.1085e-03  3.7947e-04
  6.6087e-04  3.4802e-04  1.5832e-04  7.6490e-05  9.4995e-05  2.4677e-04  2.9313e-04  2.6956e-04  7.1799e-04  2.1817e-03
  1.5594e-03
  1.5882e-03  3.1258e-03  1.2020e-02  2.5302e-03  4.5760e-03  4.3990e-03  1.7421e-03  2.1464e-03  1.3347e-03  1.5455e-03
  1.0130e-03  6.9137e-04  2.9131e-04  4.4535e-04  2.2304e-04  3.4744e-04  5.0518e-04  1.7430e-04  1.2529e-03  3.6790e-03
  7.2674e-04
  5.1721e-03  6.2647e-03  1.2063e-02  5.2375e-03  8.7216e-03  6.8999e-03  4.3993e-03  8.6446e-03  1.1846e-03  1.1114e-03
  8.0029e-04  7.7002e-04  2.5381e-04  1.6947e-04  1.9621e-04  3.3859e-04  1.2153e-03  3.1812e-04  6.4469e-04  2.1231e-03
  1.0917e-03
  9.0296e-03  1.0357e-02  8.2788e-03  2.6195e-03  1.9485e-03  2.0570e-03  1.4657e-03  2.8893e-03  1.3254e-03  2.1503e-03
  1.5913e-03  3.5403e-03  8.2837e-04  6.5570e-04  7.6017e-04  4.9805e-04  1.2628e-03  9.4413e-04  7.7496e-04  1.7876e-03
  2.3051e-03
  9.9029e-03  1.0482e-02  5.9746e-03  4.9002e-03  2.6794e-03  1.8139e-03  3.2434e-03  2.8971e-03  1.0099e-03  2.3624e-03
  1.6915e-03  1.7196e-03  4.2915e-04  3.7775e-04  7.0795e-04  2.4597e-04  1.0355e-03  9.7749e-04  1.9719e-03  2.2340e-03
  8.1230e-04
