# MODFLOW2000 Discretization File
 1  21  21  1  4  0
 0
         0     1.000(10E12.4)                    0     DELTA-X or C
         0     1.000(10E12.4)                    0     DELTA-Y or R
         0    20.000(10e12.4)                   -1     TOP of Model
         00.0000e+00(10e12.4)                   -1     BOTTOM of Layer   1
  10.000000  1  1.200000  SS
